1

   Abaqus 6.14-1                                  Date 30-Sep-2021   Time 16:14:19
   For use at UNIVERSITY OF CAPE TOWN under license from Dassault Systemes or its subsidiary.

                                                                                 
                                                                                 
 STEP    1     INCREMENT     1     STEP TIME    0.00    


                        S T E P       1     D Y N A M I C   A N A L Y S I S - I M P L I C I T  I N T E G R A T I O N


                                                                                          

          DYNAMIC APPLICATION PACKED SCHEME IS                 MODERATE DISSIPATION
          HILBER-HUGHES-TAYLOR (HHT) TIME INTEGRATOR IS USED

     AUTOMATIC TIME CONTROL WITH -
          A SUGGESTED INITIAL TIME INCREMENT OF                3.000E-03
          AND A TOTAL TIME PERIOD OF                           3.000E-03
          THE MINIMUM TIME INCREMENT ALLOWED IS                3.000E-08
          THE MAXIMUM TIME INCREMENT ALLOWED IS                3.000E-03

          THE HALF-INCREMENT RESIDUALS WILL NOT BE CALCULATED

          HILBER-HUGHES-TAYLOR METHOD PARAMETERS:  ALPHA   IS  -0.414214    
                                                   BETA    IS   0.500000    
                                                   GAMMA   IS   0.914214    
          CONTACT IMPACT/RELEASE COMPUTATIONS ARE SKIPPED
          AGGRESSIVE   TIME INCREMENTATION IS USED
          STEP AMPLITUDE IS                                    STEP

 CONVERGENCE TOLERANCE PARAMETERS FOR FORCE    
     CRITERION FOR RESIDUAL FORCE     FOR A NONLINEAR PROBLEM          5.000E-03
     CRITERION FOR DISP.    CORRECTION IN A NONLINEAR PROBLEM          1.000E-02
     INITIAL VALUE OF TIME AVERAGE FORCE                               1.000E-02
     AVERAGE FORCE     IS TIME AVERAGE FORCE    
     ALTERNATE CRIT. FOR RESIDUAL FORCE     FOR A NONLINEAR PROBLEM    2.000E-02
     CRITERION FOR ZERO FORCE     RELATIVE TO TIME AVRG. FORCE         1.000E-05
     CRITERION FOR RESIDUAL FORCE     WHEN THERE IS ZERO FLUX          1.000E-05
     CRITERION FOR DISP.    CORRECTION WHEN THERE IS ZERO FLUX         1.000E-03
     CRITERION FOR RESIDUAL FORCE     FOR A LINEAR INCREMENT           1.000E-08
     FIELD CONVERSION RATIO                                             1.00    
     CRITERION FOR ZERO FORCE     REL. TO TIME AVRG. MAX. FORCE        1.000E-05
     CRITERION FOR ZERO DISP.    RELATIVE TO CHARACTERISTIC LENGTH     1.000E-08

     VOLUMETRIC STRAIN COMPATIBILITY TOLERANCE FOR HYBRID SOLIDS       1.000E-05
     AXIAL STRAIN COMPATIBILITY TOLERANCE FOR HYBRID BEAMS             1.000E-05
     TRANS. SHEAR STRAIN COMPATIBILITY TOLERANCE FOR HYBRID BEAMS      1.000E-05
     SOFT CONTACT CONSTRAINT COMPATIBILITY TOLERANCE FOR P>P0          5.000E-03
     SOFT CONTACT CONSTRAINT COMPATIBILITY TOLERANCE FOR P=0.0         0.100    
     CONTACT FORCE ERROR TOLERANCE FOR CONVERT SDI=YES                 1.00    
     DISPLACEMENT COMPATIBILITY TOLERANCE FOR DCOUP ELEMENTS           1.000E-05
     ROTATION COMPATIBILITY TOLERANCE FOR DCOUP ELEMENTS               1.000E-05

 EQUILIBRIUM WILL BE CHECKED FOR SEVERE DISCONTINUITY ITERATIONS

 TIME INCREMENTATION CONTROL PARAMETERS:
     FIRST EQUILIBRIUM ITERATION FOR CONSECUTIVE DIVERGENCE CHECK              4
     EQUILIBRIUM ITERATION AT WHICH LOG. CONVERGENCE RATE CHECK BEGINS         8
     EQUILIBRIUM ITERATION AFTER WHICH ALTERNATE RESIDUAL IS USED              9
     MAXIMUM EQUILIBRIUM ITERATIONS ALLOWED                                   16
     EQUILIBRIUM ITERATION COUNT FOR CUT-BACK IN NEXT INCREMENT               10
     MAXIMUM EQUILIB. ITERS IN TWO INCREMENTS FOR TIME INCREMENT INCREASE      4
     MAXIMUM ITERATIONS FOR SEVERE DISCONTINUITIES                            50
     MAXIMUM CUT-BACKS ALLOWED IN AN INCREMENT                                 5
     MAXIMUM DISCON. ITERS IN TWO INCREMENTS FOR TIME INCREMENT INCREASE      50
     MAXIMUM CONTACT AUGMENTATIONS FOR *SURFACE BEHAVIOR,AUGMENTED LAGRANGE   50
     CUT-BACK FACTOR AFTER DIVERGENCE                                 0.2500    
     CUT-BACK FACTOR FOR TOO SLOW CONVERGENCE                         0.5000    
     CUT-BACK FACTOR AFTER TOO MANY EQUILIBRIUM ITERATIONS            0.7500    
     CUT-BACK FACTOR AFTER TOO MANY SEVERE DISCONTINUITY ITERATIONS   0.2500    
     CUT-BACK FACTOR AFTER PROBLEMS IN ELEMENT ASSEMBLY               0.2500    
     INCREASE FACTOR AFTER TWO INCREMENTS THAT CONVERGE QUICKLY        1.500    
     MAX. TIME INCREMENT INCREASE FACTOR ALLOWED                       1.500    
     MAX. TIME INCREMENT INCREASE FACTOR ALLOWED (DYNAMICS)            1.250    
     MAX. TIME INCREMENT INCREASE FACTOR ALLOWED (DIFFUSION)           2.000    
     MINIMUM TIME INCREMENT RATIO FOR EXTRAPOLATION TO OCCUR          0.1000    
     MAX. RATIO OF TIME INCREMENT TO STABILITY LIMIT                   1.000    
     FRACTION OF STABILITY LIMIT FOR NEW TIME INCREMENT               0.9500    
     TIME INCREMENT INCREASE FACTOR BEFORE A TIME POINT                1.000    

 CONTACT CONTROLS APPLIED TO ALL CONTACT PAIRS:
     GLOBAL STABILIZATION CONTROL IS NOT USED
     RELATIVE PENETRATION TOLERANCE FOR AUGMENTED LAGRANGE CONTACT:
          FINITE-SLIDING SURFACE-TO-SURFACE                            5.000E-02
          OTHERWISE                                                    1.000E-03

          PRINT OF INCREMENT NUMBER, TIME, ETC., EVERY    1  INCREMENTS

     THE MAXIMUM NUMBER OF INCREMENTS IN THIS STEP IS                   10000

          LARGE DISPLACEMENT THEORY WILL BE USED

          UNSYMMETRIC MATRIX STORAGE AND SOLUTION WILL BE USED

     LINEAR EXTRAPOLATION WILL BE USED

     CHARACTERISTIC ELEMENT LENGTH      3.76    

     DETAILS REGARDING ACTUAL SOLUTION WAVEFRONT REQUESTED

     DETAILED OUTPUT OF DIAGNOSTICS TO DATABASE REQUESTED

     PRINT OF INCREMENT NUMBER, TIME, ETC., TO THE MESSAGE FILE EVERY     1  INCREMENTS

     ELEMENT OPERATIONS WILL BE CARRIED OUT IN PARALLEL USING  12 PROCESSORS
          THE INITIAL TIME INCREMENT WAS REDUCED TO   3.000E-05 TO MEET THE NEXT OUTPUT TIME POINT

     PARALLEL CONTACT TRACKING ENABLED


     COLLECTING MODEL CONSTRAINT INFORMATION FOR OVERCONSTRAINT CHECKS

     COLLECTING STEP CONSTRAINT INFORMATION FOR OVERCONSTRAINT CHECKS
  
     ASYNCHRONOUS TRACKING ELEMENT LOOP STARTED
  
  
     ASYNCHRONOUS OUTPUT DATABASE FRAME FLUSH STARTED
  


  INCREMENT     1 STARTS. ATTEMPT NUMBER  1, TIME INCREMENT  3.000E-05
  
     ASYNCHRONOUS TRACKING ELEMENT LOOP STARTED
  
 
     INITIAL ELEMENT LOAD BALANCE
        COMPUTE NODE   1   PROCESS    NUMBER OF ELEMENTS
                              1            187
                              2            187
                              3            187
                              4            187
                              5            187
                              6            187
                              7            187
                              8            187
                              9            187
                             10            198
                             11            187
                             12            187

  NUMBER OF EQUATIONS =    13596     NUMBER OF FLOATING PT. OPERATIONS =  3.08E+07

  USING THE DIRECT SOLVER WITH  12 PROCESSORS

     CHECK POINT   START OF SOLVER    

     CHECK POINT  END OF SOLVER       

       ELAPSED USER TIME (SEC)      =  0.38000    
       ELAPSED SYSTEM TIME (SEC)    =  0.15000    
       ELAPSED TOTAL CPU TIME (SEC) =  0.53000    
       ELAPSED WALLCLOCK TIME (SEC) =          1
  
     ASYNCHRONOUS TRACKING ELEMENT LOOP STARTED
  

                    2 SEVERE DISCONTINUITIES OCCURRED DURING THIS ITERATION.
                    2 POINTS CHANGED FROM CLOSED TO OPEN

               CONVERGENCE CHECKS FOR SEVERE DISCONTINUITY ITERATION     1

   MAX. PENETRATION ERROR -2.49164E-09 AT NODE PISTON-1.408 OF CONTACT PAIR 
   (ASSEMBLY_PISTON-1_PUMP-CONTACT,ASSEMBLY_TUBE-INNER)
   MAX. CONTACT FORCE ERROR -118.541       AT NODE PISTON-1.1 OF CONTACT PAIR 
   (ASSEMBLY_PISTON-1_PUMP-CONTACT,ASSEMBLY_TUBE-INNER)
          THE ESTIMATED CONTACT FORCE ERROR IS OUTSIDE OF CONVERGENCE TOLERANCES.

 AVERAGE FORCE                       3.16       TIME AVG. FORCE        3.16    
 LARGEST RESIDUAL FORCE             -79.1       AT NODE          1   DOF  1
   INSTANCE: PISTON-1                                                                        
 LARGEST INCREMENT OF DISP.         0.601       AT NODE          9   DOF  2
   INSTANCE: PISTON-1                                                                        
 LARGEST CORRECTION TO DISP.        9.331E-04   AT NODE          9   DOF  2
   INSTANCE: PISTON-1                                                                        
          FORCE     EQUILIBRIUM NOT ACHIEVED WITHIN TOLERANCE.

  NUMBER OF EQUATIONS =    13596     NUMBER OF FLOATING PT. OPERATIONS =  3.08E+07

  USING THE DIRECT SOLVER WITH  12 PROCESSORS

     CHECK POINT   START OF SOLVER    

     CHECK POINT  END OF SOLVER       

       ELAPSED USER TIME (SEC)      =  0.35000    
       ELAPSED SYSTEM TIME (SEC)    =  0.19000    
       ELAPSED TOTAL CPU TIME (SEC) =  0.54000    
       ELAPSED WALLCLOCK TIME (SEC) =          0
  
     ASYNCHRONOUS TRACKING ELEMENT LOOP STARTED
  

                    1 SEVERE DISCONTINUITIES OCCURRED DURING THIS ITERATION.
                    1 POINTS CHANGED FROM CLOSED TO OPEN

               CONVERGENCE CHECKS FOR SEVERE DISCONTINUITY ITERATION     2

   MAX. PENETRATION ERROR -729.716E-15   AT NODE PISTON-1.12 OF CONTACT PAIR 
   (ASSEMBLY_PISTON-1_PUMP-CONTACT,ASSEMBLY_TUBE-INNER)
   MAX. CONTACT FORCE ERROR -72.7396      AT NODE PISTON-1.408 OF CONTACT PAIR 
   (ASSEMBLY_PISTON-1_PUMP-CONTACT,ASSEMBLY_TUBE-INNER)
          THE ESTIMATED CONTACT FORCE ERROR IS OUTSIDE OF CONVERGENCE TOLERANCES.

 AVERAGE FORCE                       3.15       TIME AVG. FORCE        3.15    
 LARGEST RESIDUAL FORCE             -48.5       AT NODE        408   DOF  1
   INSTANCE: PISTON-1                                                                        
 LARGEST INCREMENT OF DISP.         0.601       AT NODE          9   DOF  2
   INSTANCE: PISTON-1                                                                        
 LARGEST CORRECTION TO DISP.       -2.108E-05   AT NODE          1   DOF  2
   INSTANCE: PISTON-1                                                                        
          FORCE     EQUILIBRIUM NOT ACHIEVED WITHIN TOLERANCE.

  NUMBER OF EQUATIONS =    13596     NUMBER OF FLOATING PT. OPERATIONS =  3.08E+07

  USING THE DIRECT SOLVER WITH  12 PROCESSORS

     CHECK POINT   START OF SOLVER    

     CHECK POINT  END OF SOLVER       

       ELAPSED USER TIME (SEC)      =  0.40000    
       ELAPSED SYSTEM TIME (SEC)    =  0.13000    
       ELAPSED TOTAL CPU TIME (SEC) =  0.53000    
       ELAPSED WALLCLOCK TIME (SEC) =          0
  
     ASYNCHRONOUS TRACKING ELEMENT LOOP STARTED
  

                    1 SEVERE DISCONTINUITIES OCCURRED DURING THIS ITERATION.
                    1 POINTS CHANGED FROM CLOSED TO OPEN

               CONVERGENCE CHECKS FOR SEVERE DISCONTINUITY ITERATION     3

   MAX. PENETRATION ERROR -653.996E-15   AT NODE PISTON-1.12 OF CONTACT PAIR 
   (ASSEMBLY_PISTON-1_PUMP-CONTACT,ASSEMBLY_TUBE-INNER)
   MAX. CONTACT FORCE ERROR -15.2817      AT NODE PISTON-1.11 OF CONTACT PAIR 
   (ASSEMBLY_PISTON-1_PUMP-CONTACT,ASSEMBLY_TUBE-INNER)
          THE ESTIMATED CONTACT FORCE ERROR IS OUTSIDE OF CONVERGENCE TOLERANCES.

 AVERAGE FORCE                       3.14       TIME AVG. FORCE        3.14    
 LARGEST RESIDUAL FORCE             -10.2       AT NODE         11   DOF  1
   INSTANCE: PISTON-1                                                                        
 LARGEST INCREMENT OF DISP.         0.601       AT NODE          9   DOF  2
   INSTANCE: PISTON-1                                                                        
 LARGEST CORRECTION TO DISP.       -1.475E-05   AT NODE        408   DOF  2
   INSTANCE: PISTON-1                                                                        
          FORCE     EQUILIBRIUM NOT ACHIEVED WITHIN TOLERANCE.

  NUMBER OF EQUATIONS =    13596     NUMBER OF FLOATING PT. OPERATIONS =  3.07E+07

  USING THE DIRECT SOLVER WITH  12 PROCESSORS

     CHECK POINT   START OF SOLVER    

     CHECK POINT  END OF SOLVER       

       ELAPSED USER TIME (SEC)      =  0.38000    
       ELAPSED SYSTEM TIME (SEC)    =  0.15000    
       ELAPSED TOTAL CPU TIME (SEC) =  0.53000    
       ELAPSED WALLCLOCK TIME (SEC) =          0
  
     ASYNCHRONOUS TRACKING ELEMENT LOOP STARTED
  

               CONVERGENCE CHECKS FOR EQUILIBRIUM ITERATION     1

   MAX. PENETRATION ERROR -376.037E-15   AT NODE PISTON-1.546 OF CONTACT PAIR 
   (ASSEMBLY_PISTON-1_PUMP-CONTACT,ASSEMBLY_TUBE-INNER)
   MAX. CONTACT FORCE ERROR -3.33146E-06 AT NODE PISTON-1.546 OF CONTACT PAIR 
   (ASSEMBLY_PISTON-1_PUMP-CONTACT,ASSEMBLY_TUBE-INNER)
          THE CONTACT CONSTRAINTS HAVE CONVERGED.

 AVERAGE FORCE                       3.14       TIME AVG. FORCE        3.14    
 LARGEST RESIDUAL FORCE             1.636E-04   AT NODE          1   DOF  1
   INSTANCE: PISTON-1                                                                        
 LARGEST INCREMENT OF DISP.         0.601       AT NODE          9   DOF  2
   INSTANCE: PISTON-1                                                                        
 LARGEST CORRECTION TO DISP.       -2.500E-06   AT NODE         11   DOF  2
   INSTANCE: PISTON-1                                                                        
          THE FORCE     EQUILIBRIUM EQUATIONS HAVE CONVERGED
          TIME INCREMENT MAY NOW INCREASE TO    3.000E-03
          TIME INCREMENT REDUCED TO   3.000E-05 TO MEET NEXT OUTPUT TIME POINT

 ITERATION SUMMARY FOR THE INCREMENT:   4 TOTAL ITERATIONS, OF WHICH
   3 ARE SEVERE DISCONTINUITY ITERATIONS AND  1 ARE EQUILIBRIUM ITERATIONS.

 TIME INCREMENT COMPLETED  3.000E-05,  FRACTION OF STEP COMPLETED  1.000E-02
 STEP TIME COMPLETED       3.000E-05,  TOTAL TIME COMPLETED        3.000E-05
  
     ASYNCHRONOUS OUTPUT DATABASE FRAME FLUSH STARTED
  


  INCREMENT     2 STARTS. ATTEMPT NUMBER  1, TIME INCREMENT  3.000E-05
  
     ASYNCHRONOUS TRACKING ELEMENT LOOP STARTED
  

  NUMBER OF EQUATIONS =    13596     NUMBER OF FLOATING PT. OPERATIONS =  3.39E+07

  USING THE DIRECT SOLVER WITH  12 PROCESSORS

     CHECK POINT   START OF SOLVER    

     CHECK POINT  END OF SOLVER       

       ELAPSED USER TIME (SEC)      =  0.35000    
       ELAPSED SYSTEM TIME (SEC)    =  0.19000    
       ELAPSED TOTAL CPU TIME (SEC) =  0.54000    
       ELAPSED WALLCLOCK TIME (SEC) =          0
  
     ASYNCHRONOUS TRACKING ELEMENT LOOP STARTED
  

                    2 SEVERE DISCONTINUITIES OCCURRED DURING THIS ITERATION.
                    1 POINTS CHANGED FROM OPEN TO CLOSED
                    1 POINTS CHANGED FROM STICKING TO SLIPPING

               CONVERGENCE CHECKS FOR SEVERE DISCONTINUITY ITERATION     1

   MAX. PENETRATION ERROR 2.78535E-06 AT NODE PISTON-1.11 OF CONTACT PAIR 
   (ASSEMBLY_PISTON-1_PUMP-CONTACT,ASSEMBLY_TUBE-INNER)
   MAX. CONTACT FORCE ERROR 24.6764      AT NODE PISTON-1.11 OF CONTACT PAIR 
   (ASSEMBLY_PISTON-1_PUMP-CONTACT,ASSEMBLY_TUBE-INNER)
          THE ESTIMATED CONTACT FORCE ERROR IS OUTSIDE OF CONVERGENCE TOLERANCES.

 AVERAGE FORCE                       7.63       TIME AVG. FORCE        5.39    
 LARGEST RESIDUAL FORCE            -0.137       AT NODE          1   DOF  1
   INSTANCE: PISTON-1                                                                        
 LARGEST INCREMENT OF DISP.         0.602       AT NODE        368   DOF  2
   INSTANCE: PISTON-1                                                                        
 LARGEST CORRECTION TO DISP.        1.529E-03   AT NODE         55   DOF  2
   INSTANCE: PISTON-1                                                                        
          FORCE     EQUILIBRIUM NOT ACHIEVED WITHIN TOLERANCE.

  NUMBER OF EQUATIONS =    13596     NUMBER OF FLOATING PT. OPERATIONS =  3.46E+07

  USING THE DIRECT SOLVER WITH  12 PROCESSORS

     CHECK POINT   START OF SOLVER    

     CHECK POINT  END OF SOLVER       

       ELAPSED USER TIME (SEC)      =  0.38000    
       ELAPSED SYSTEM TIME (SEC)    =  0.16000    
       ELAPSED TOTAL CPU TIME (SEC) =  0.54000    
       ELAPSED WALLCLOCK TIME (SEC) =          0
  
     ASYNCHRONOUS TRACKING ELEMENT LOOP STARTED
  

               CONVERGENCE CHECKS FOR EQUILIBRIUM ITERATION     1

   MAX. PENETRATION ERROR -602.067E-15   AT NODE PISTON-1.546 OF CONTACT PAIR 
   (ASSEMBLY_PISTON-1_PUMP-CONTACT,ASSEMBLY_TUBE-INNER)
   MAX. CONTACT FORCE ERROR -5.33393E-06 AT NODE PISTON-1.546 OF CONTACT PAIR 
   (ASSEMBLY_PISTON-1_PUMP-CONTACT,ASSEMBLY_TUBE-INNER)
          THE CONTACT CONSTRAINTS HAVE CONVERGED.

 AVERAGE FORCE                       7.63       TIME AVG. FORCE        5.39    
 LARGEST RESIDUAL FORCE            -7.084E-04   AT NODE         11   DOF  1
   INSTANCE: PISTON-1                                                                        
 LARGEST INCREMENT OF DISP.         0.602       AT NODE        368   DOF  2
   INSTANCE: PISTON-1                                                                        
 LARGEST CORRECTION TO DISP.       -3.034E-06   AT NODE         11   DOF  2
   INSTANCE: PISTON-1                                                                        
          THE FORCE     EQUILIBRIUM EQUATIONS HAVE CONVERGED
          TIME INCREMENT MAY NOW INCREASE TO    3.000E-03
          TIME INCREMENT REDUCED TO   3.000E-05 TO MEET NEXT OUTPUT TIME POINT

 ITERATION SUMMARY FOR THE INCREMENT:   2 TOTAL ITERATIONS, OF WHICH
   1 ARE SEVERE DISCONTINUITY ITERATIONS AND  1 ARE EQUILIBRIUM ITERATIONS.

 TIME INCREMENT COMPLETED  3.000E-05,  FRACTION OF STEP COMPLETED  2.000E-02
 STEP TIME COMPLETED       6.000E-05,  TOTAL TIME COMPLETED        6.000E-05
  
     ASYNCHRONOUS OUTPUT DATABASE FRAME FLUSH STARTED
  


  INCREMENT     3 STARTS. ATTEMPT NUMBER  1, TIME INCREMENT  3.000E-05
  
     ASYNCHRONOUS TRACKING ELEMENT LOOP STARTED
  

  NUMBER OF EQUATIONS =    13596     NUMBER OF FLOATING PT. OPERATIONS =  3.22E+07

  USING THE DIRECT SOLVER WITH  12 PROCESSORS

     CHECK POINT   START OF SOLVER    

     CHECK POINT  END OF SOLVER       

       ELAPSED USER TIME (SEC)      =  0.43000    
       ELAPSED SYSTEM TIME (SEC)    =  0.14000    
       ELAPSED TOTAL CPU TIME (SEC) =  0.57000    
       ELAPSED WALLCLOCK TIME (SEC) =          0
  
     ASYNCHRONOUS TRACKING ELEMENT LOOP STARTED
  

                    2 SEVERE DISCONTINUITIES OCCURRED DURING THIS ITERATION.
                    1 POINTS CHANGED FROM OPEN TO CLOSED
                    1 POINTS CHANGED FROM STICKING TO SLIPPING

               CONVERGENCE CHECKS FOR SEVERE DISCONTINUITY ITERATION     1

   MAX. PENETRATION ERROR 3.77171E-03 AT NODE CAP-1.519 OF CONTACT PAIR 
   (ASSEMBLY_CAP-1_TRANSITION-AND-PUMP-CONTACT,ASSEMBLY_TRANSITION-PIECE-1_END-C
   ONTACT)
   MAX. CONTACT FORCE ERROR 1.14040E+03 AT NODE CAP-1.519 OF CONTACT PAIR 
   (ASSEMBLY_CAP-1_TRANSITION-AND-PUMP-CONTACT,ASSEMBLY_TRANSITION-PIECE-1_END-C
   ONTACT)
          PENETRATION ERROR TOO LARGE COMPARED TO DISPLACEMENT INCREMENT.

 AVERAGE FORCE                       7.99       TIME AVG. FORCE        6.25    
 LARGEST RESIDUAL FORCE             0.256       AT NODE          6   DOF  1
   INSTANCE: PUMP-TUBE-1                                                                     
 LARGEST INCREMENT OF DISP.         0.604       AT NODE        403   DOF  2
   INSTANCE: CAP-1                                                                           
 LARGEST CORRECTION TO DISP.        2.564E-03   AT NODE        149   DOF  2
   INSTANCE: CAP-1                                                                           
          FORCE     EQUILIBRIUM NOT ACHIEVED WITHIN TOLERANCE.

  NUMBER OF EQUATIONS =    13596     NUMBER OF FLOATING PT. OPERATIONS =  3.48E+07

  USING THE DIRECT SOLVER WITH  12 PROCESSORS

     CHECK POINT   START OF SOLVER    

     CHECK POINT  END OF SOLVER       

       ELAPSED USER TIME (SEC)      =  0.40000    
       ELAPSED SYSTEM TIME (SEC)    =  0.16000    
       ELAPSED TOTAL CPU TIME (SEC) =  0.56000    
       ELAPSED WALLCLOCK TIME (SEC) =          0
  
     ASYNCHRONOUS TRACKING ELEMENT LOOP STARTED
  

                    1 SEVERE DISCONTINUITIES OCCURRED DURING THIS ITERATION.
                    1 POINTS CHANGED FROM CLOSED TO OPEN

               CONVERGENCE CHECKS FOR SEVERE DISCONTINUITY ITERATION     2

   MAX. PENETRATION ERROR 1.42376E-06 AT NODE CAP-1.519 OF CONTACT PAIR 
   (ASSEMBLY_CAP-1_TRANSITION-AND-PUMP-CONTACT,ASSEMBLY_TRANSITION-PIECE-1_END-C
   ONTACT)
   MAX. CONTACT FORCE ERROR -108.793       AT NODE CAP-1.149 OF CONTACT PAIR 
   (ASSEMBLY_CAP-1_TRANSITION-AND-PUMP-CONTACT,ASSEMBLY_PUMP-TUBE-1_PISTON-CONTA
   CT)
          THE ESTIMATED CONTACT FORCE ERROR IS OUTSIDE OF CONVERGENCE TOLERANCES.

 AVERAGE FORCE                       9.25       TIME AVG. FORCE        6.67    
 LARGEST RESIDUAL FORCE             -72.5       AT NODE        149   DOF  1
   INSTANCE: CAP-1                                                                           
 LARGEST INCREMENT OF DISP.         0.604       AT NODE          7   DOF  2
   INSTANCE: CAP-1                                                                           
 LARGEST CORRECTION TO DISP.       -3.813E-03   AT NODE        519   DOF  2
   INSTANCE: CAP-1                                                                           
          FORCE     EQUILIBRIUM NOT ACHIEVED WITHIN TOLERANCE.

  NUMBER OF EQUATIONS =    13596     NUMBER OF FLOATING PT. OPERATIONS =  3.48E+07

  USING THE DIRECT SOLVER WITH  12 PROCESSORS

     CHECK POINT   START OF SOLVER    

     CHECK POINT  END OF SOLVER       

       ELAPSED USER TIME (SEC)      =  0.46000    
       ELAPSED SYSTEM TIME (SEC)    =  9.00000E-02
       ELAPSED TOTAL CPU TIME (SEC) =  0.55000    
       ELAPSED WALLCLOCK TIME (SEC) =          0
  
     ASYNCHRONOUS TRACKING ELEMENT LOOP STARTED
  

                    1 SEVERE DISCONTINUITIES OCCURRED DURING THIS ITERATION.
                    1 POINTS CHANGED FROM CLOSED TO OPEN

               CONVERGENCE CHECKS FOR SEVERE DISCONTINUITY ITERATION     3

   MAX. PENETRATION ERROR 711.738E-12   AT NODE CAP-1.153 OF CONTACT PAIR 
   (ASSEMBLY_CAP-1_TRANSITION-AND-PUMP-CONTACT,ASSEMBLY_PUMP-TUBE-1_PISTON-CONTA
   CT)
   MAX. CONTACT FORCE ERROR -38.1443      AT NODE CAP-1.32 OF CONTACT PAIR 
   (ASSEMBLY_CAP-1_TRANSITION-AND-PUMP-CONTACT,ASSEMBLY_PUMP-TUBE-1_PISTON-CONTA
   CT)
          THE ESTIMATED CONTACT FORCE ERROR IS OUTSIDE OF CONVERGENCE TOLERANCES.

 AVERAGE FORCE                       9.22       TIME AVG. FORCE        6.67    
 LARGEST RESIDUAL FORCE             -25.5       AT NODE         32   DOF  1
   INSTANCE: CAP-1                                                                           
 LARGEST INCREMENT OF DISP.         0.604       AT NODE          7   DOF  2
   INSTANCE: CAP-1                                                                           
 LARGEST CORRECTION TO DISP.       -6.459E-04   AT NODE        149   DOF  1
   INSTANCE: CAP-1                                                                           
          FORCE     EQUILIBRIUM NOT ACHIEVED WITHIN TOLERANCE.

  NUMBER OF EQUATIONS =    13596     NUMBER OF FLOATING PT. OPERATIONS =  3.48E+07

  USING THE DIRECT SOLVER WITH  12 PROCESSORS

     CHECK POINT   START OF SOLVER    

     CHECK POINT  END OF SOLVER       

       ELAPSED USER TIME (SEC)      =  0.40000    
       ELAPSED SYSTEM TIME (SEC)    =  0.14000    
       ELAPSED TOTAL CPU TIME (SEC) =  0.54000    
       ELAPSED WALLCLOCK TIME (SEC) =          0
  
     ASYNCHRONOUS TRACKING ELEMENT LOOP STARTED
  

               CONVERGENCE CHECKS FOR EQUILIBRIUM ITERATION     1

   MAX. PENETRATION ERROR 1.36221E-09 AT NODE CAP-1.153 OF CONTACT PAIR 
   (ASSEMBLY_CAP-1_TRANSITION-AND-PUMP-CONTACT,ASSEMBLY_PUMP-TUBE-1_PISTON-CONTA
   CT)
   MAX. CONTACT FORCE ERROR 1.09308E-03 AT NODE CAP-1.153 OF CONTACT PAIR 
   (ASSEMBLY_CAP-1_TRANSITION-AND-PUMP-CONTACT,ASSEMBLY_PUMP-TUBE-1_PISTON-CONTA
   CT)
          THE CONTACT CONSTRAINTS HAVE CONVERGED.

 AVERAGE FORCE                       9.23       TIME AVG. FORCE        6.67    
 LARGEST RESIDUAL FORCE             5.821E-03   AT NODE        151   DOF  1
   INSTANCE: CAP-1                                                                           
 LARGEST INCREMENT OF DISP.         0.604       AT NODE          7   DOF  2
   INSTANCE: CAP-1                                                                           
 LARGEST CORRECTION TO DISP.       -2.326E-04   AT NODE         32   DOF  1
   INSTANCE: CAP-1                                                                           
          THE FORCE     EQUILIBRIUM EQUATIONS HAVE CONVERGED
          TIME INCREMENT MAY NOW INCREASE TO    3.000E-03
          TIME INCREMENT REDUCED TO   3.000E-05 TO MEET NEXT OUTPUT TIME POINT

 ITERATION SUMMARY FOR THE INCREMENT:   4 TOTAL ITERATIONS, OF WHICH
   3 ARE SEVERE DISCONTINUITY ITERATIONS AND  1 ARE EQUILIBRIUM ITERATIONS.

 TIME INCREMENT COMPLETED  3.000E-05,  FRACTION OF STEP COMPLETED  3.000E-02
 STEP TIME COMPLETED       9.000E-05,  TOTAL TIME COMPLETED        9.000E-05
  
     ASYNCHRONOUS OUTPUT DATABASE FRAME FLUSH STARTED
  


  INCREMENT     4 STARTS. ATTEMPT NUMBER  1, TIME INCREMENT  3.000E-05
  
     ASYNCHRONOUS TRACKING ELEMENT LOOP STARTED
  

  NUMBER OF EQUATIONS =    13596     NUMBER OF FLOATING PT. OPERATIONS =  3.26E+07

  USING THE DIRECT SOLVER WITH  12 PROCESSORS

     CHECK POINT   START OF SOLVER    

     CHECK POINT  END OF SOLVER       

       ELAPSED USER TIME (SEC)      =  0.44000    
       ELAPSED SYSTEM TIME (SEC)    =  0.12000    
       ELAPSED TOTAL CPU TIME (SEC) =  0.56000    
       ELAPSED WALLCLOCK TIME (SEC) =          0
  
     ASYNCHRONOUS TRACKING ELEMENT LOOP STARTED
  

                    5 SEVERE DISCONTINUITIES OCCURRED DURING THIS ITERATION.
                    2 POINTS CHANGED FROM OPEN TO CLOSED
                    1 POINTS CHANGED FROM CLOSED TO OPEN
                    2 POINTS CHANGED FROM STICKING TO SLIPPING

               CONVERGENCE CHECKS FOR SEVERE DISCONTINUITY ITERATION     1

   MAX. PENETRATION ERROR 3.38352E-03 AT NODE CAP-1.519 OF CONTACT PAIR 
   (ASSEMBLY_CAP-1_TRANSITION-AND-PUMP-CONTACT,ASSEMBLY_TRANSITION-PIECE-1_END-C
   ONTACT)
   MAX. CONTACT FORCE ERROR -1.19173E+03 AT NODE CAP-1.153 OF CONTACT PAIR 
   (ASSEMBLY_CAP-1_TRANSITION-AND-PUMP-CONTACT,ASSEMBLY_PUMP-TUBE-1_PISTON-CONTA
   CT)
          PENETRATION ERROR TOO LARGE COMPARED TO DISPLACEMENT INCREMENT.

 AVERAGE FORCE                       85.6       TIME AVG. FORCE        26.4    
 LARGEST RESIDUAL FORCE            -2.959E+03   AT NODE          1   DOF  2
   INSTANCE: CAP-1                                                                           
 LARGEST INCREMENT OF DISP.         0.620       AT NODE          7   DOF  2
   INSTANCE: CAP-1                                                                           
 LARGEST CORRECTION TO DISP.       -0.173       AT NODE        519   DOF  2
   INSTANCE: CAP-1                                                                           
          FORCE     EQUILIBRIUM NOT ACHIEVED WITHIN TOLERANCE.

  NUMBER OF EQUATIONS =    13596     NUMBER OF FLOATING PT. OPERATIONS =  3.33E+07

  USING THE DIRECT SOLVER WITH  12 PROCESSORS

     CHECK POINT   START OF SOLVER    

     CHECK POINT  END OF SOLVER       

       ELAPSED USER TIME (SEC)      =  0.38000    
       ELAPSED SYSTEM TIME (SEC)    =  0.15000    
       ELAPSED TOTAL CPU TIME (SEC) =  0.53000    
       ELAPSED WALLCLOCK TIME (SEC) =          0
  
     ASYNCHRONOUS TRACKING ELEMENT LOOP STARTED
  

                    2 SEVERE DISCONTINUITIES OCCURRED DURING THIS ITERATION.
                    1 POINTS CHANGED FROM OPEN TO CLOSED
                    1 POINTS CHANGED FROM STICKING TO SLIPPING

               CONVERGENCE CHECKS FOR SEVERE DISCONTINUITY ITERATION     2

   MAX. PENETRATION ERROR 3.53852E-03 AT NODE CAP-1.1 OF CONTACT PAIR 
   (ASSEMBLY_CAP-1_TRANSITION-AND-PUMP-CONTACT,ASSEMBLY_TRANSITION-PIECE-1_END-C
   ONTACT)
   MAX. CONTACT FORCE ERROR 1.17113E+03 AT NODE CAP-1.1 OF CONTACT PAIR 
   (ASSEMBLY_CAP-1_TRANSITION-AND-PUMP-CONTACT,ASSEMBLY_TRANSITION-PIECE-1_END-C
   ONTACT)
          PENETRATION ERROR TOO LARGE COMPARED TO DISPLACEMENT INCREMENT.

 AVERAGE FORCE                       53.8       TIME AVG. FORCE        18.4    
 LARGEST RESIDUAL FORCE            -1.373E+03   AT NODE        145   DOF  2
   INSTANCE: CAP-1                                                                           
 LARGEST INCREMENT OF DISP.         0.613       AT NODE          7   DOF  2
   INSTANCE: CAP-1                                                                           
 LARGEST CORRECTION TO DISP.        5.298E-02   AT NODE        216   DOF  2
   INSTANCE: CAP-1                                                                           
          FORCE     EQUILIBRIUM NOT ACHIEVED WITHIN TOLERANCE.

  NUMBER OF EQUATIONS =    13596     NUMBER OF FLOATING PT. OPERATIONS =  3.33E+07

  USING THE DIRECT SOLVER WITH  12 PROCESSORS

     CHECK POINT   START OF SOLVER    

     CHECK POINT  END OF SOLVER       

       ELAPSED USER TIME (SEC)      =  0.35000    
       ELAPSED SYSTEM TIME (SEC)    =  0.20000    
       ELAPSED TOTAL CPU TIME (SEC) =  0.55000    
       ELAPSED WALLCLOCK TIME (SEC) =          0
  
     ASYNCHRONOUS TRACKING ELEMENT LOOP STARTED
  

               CONVERGENCE CHECKS FOR EQUILIBRIUM ITERATION     1

   MAX. PENETRATION ERROR -20.6467E-06  AT NODE CAP-1.519 OF CONTACT PAIR 
   (ASSEMBLY_CAP-1_TRANSITION-AND-PUMP-CONTACT,ASSEMBLY_TRANSITION-PIECE-1_END-C
   ONTACT)
   MAX. CONTACT FORCE ERROR -6.68603     AT NODE CAP-1.519 OF CONTACT PAIR 
   (ASSEMBLY_CAP-1_TRANSITION-AND-PUMP-CONTACT,ASSEMBLY_TRANSITION-PIECE-1_END-C
   ONTACT)
          THE CONTACT CONSTRAINTS HAVE CONVERGED.

 AVERAGE FORCE                       49.9       TIME AVG. FORCE        17.5    
 LARGEST RESIDUAL FORCE             -66.6       AT NODE        145   DOF  2
   INSTANCE: CAP-1                                                                           
 LARGEST INCREMENT OF DISP.         0.614       AT NODE          7   DOF  2
   INSTANCE: CAP-1                                                                           
 LARGEST CORRECTION TO DISP.        3.274E-02   AT NODE         69   DOF  2
   INSTANCE: CAP-1                                                                           
          FORCE     EQUILIBRIUM NOT ACHIEVED WITHIN TOLERANCE.

  NUMBER OF EQUATIONS =    13596     NUMBER OF FLOATING PT. OPERATIONS =  3.33E+07

  USING THE DIRECT SOLVER WITH  12 PROCESSORS

     CHECK POINT   START OF SOLVER    

     CHECK POINT  END OF SOLVER       

       ELAPSED USER TIME (SEC)      =  0.38000    
       ELAPSED SYSTEM TIME (SEC)    =  0.16000    
       ELAPSED TOTAL CPU TIME (SEC) =  0.54000    
       ELAPSED WALLCLOCK TIME (SEC) =          0
  
     ASYNCHRONOUS TRACKING ELEMENT LOOP STARTED
  

               CONVERGENCE CHECKS FOR EQUILIBRIUM ITERATION     2

   MAX. PENETRATION ERROR -420.034E-09   AT NODE CAP-1.1 OF CONTACT PAIR 
   (ASSEMBLY_CAP-1_TRANSITION-AND-PUMP-CONTACT,ASSEMBLY_TRANSITION-PIECE-1_END-C
   ONTACT)
   MAX. CONTACT FORCE ERROR -140.177E-03   AT NODE CAP-1.1 OF CONTACT PAIR 
   (ASSEMBLY_CAP-1_TRANSITION-AND-PUMP-CONTACT,ASSEMBLY_TRANSITION-PIECE-1_END-C
   ONTACT)
          THE CONTACT CONSTRAINTS HAVE CONVERGED.

 AVERAGE FORCE                       49.8       TIME AVG. FORCE        17.4    
 LARGEST RESIDUAL FORCE             -1.02       AT NODE        147   DOF  2
   INSTANCE: CAP-1                                                                           
 LARGEST INCREMENT OF DISP.         0.614       AT NODE          7   DOF  2
   INSTANCE: CAP-1                                                                           
 LARGEST CORRECTION TO DISP.       -7.291E-04   AT NODE          1   DOF  2
   INSTANCE: CAP-1                                                                           
          FORCE     EQUILIBRIUM NOT ACHIEVED WITHIN TOLERANCE.

  NUMBER OF EQUATIONS =    13596     NUMBER OF FLOATING PT. OPERATIONS =  3.33E+07

  USING THE DIRECT SOLVER WITH  12 PROCESSORS

     CHECK POINT   START OF SOLVER    

     CHECK POINT  END OF SOLVER       

       ELAPSED USER TIME (SEC)      =  0.39000    
       ELAPSED SYSTEM TIME (SEC)    =  0.17000    
       ELAPSED TOTAL CPU TIME (SEC) =  0.56000    
       ELAPSED WALLCLOCK TIME (SEC) =          0
  
     ASYNCHRONOUS TRACKING ELEMENT LOOP STARTED
  

               CONVERGENCE CHECKS FOR EQUILIBRIUM ITERATION     3

   MAX. PENETRATION ERROR 14.2845E-09  AT NODE CAP-1.1 OF CONTACT PAIR 
   (ASSEMBLY_CAP-1_TRANSITION-AND-PUMP-CONTACT,ASSEMBLY_TRANSITION-PIECE-1_END-C
   ONTACT)
   MAX. CONTACT FORCE ERROR 4.76713E-03 AT NODE CAP-1.1 OF CONTACT PAIR 
   (ASSEMBLY_CAP-1_TRANSITION-AND-PUMP-CONTACT,ASSEMBLY_TRANSITION-PIECE-1_END-C
   ONTACT)
          THE CONTACT CONSTRAINTS HAVE CONVERGED.

 AVERAGE FORCE                       49.8       TIME AVG. FORCE        17.4    
 LARGEST RESIDUAL FORCE             2.297E-02   AT NODE          1   DOF  1
   INSTANCE: CAP-1                                                                           
 LARGEST INCREMENT OF DISP.         0.614       AT NODE          7   DOF  2
   INSTANCE: CAP-1                                                                           
 LARGEST CORRECTION TO DISP.        2.163E-05   AT NODE          1   DOF  2
   INSTANCE: CAP-1                                                                           
          THE FORCE     EQUILIBRIUM EQUATIONS HAVE CONVERGED
          TIME INCREMENT MAY NOW INCREASE TO    3.000E-03
          TIME INCREMENT REDUCED TO   3.000E-05 TO MEET NEXT OUTPUT TIME POINT

 ITERATION SUMMARY FOR THE INCREMENT:   5 TOTAL ITERATIONS, OF WHICH
   2 ARE SEVERE DISCONTINUITY ITERATIONS AND  3 ARE EQUILIBRIUM ITERATIONS.

 TIME INCREMENT COMPLETED  3.000E-05,  FRACTION OF STEP COMPLETED  4.000E-02
 STEP TIME COMPLETED       1.200E-04,  TOTAL TIME COMPLETED        1.200E-04
  
     ASYNCHRONOUS OUTPUT DATABASE FRAME FLUSH STARTED
  


  INCREMENT     5 STARTS. ATTEMPT NUMBER  1, TIME INCREMENT  3.000E-05
  
     ASYNCHRONOUS TRACKING ELEMENT LOOP STARTED
  

  NUMBER OF EQUATIONS =    13596     NUMBER OF FLOATING PT. OPERATIONS =  3.36E+07

  USING THE DIRECT SOLVER WITH  12 PROCESSORS

     CHECK POINT   START OF SOLVER    

     CHECK POINT  END OF SOLVER       

       ELAPSED USER TIME (SEC)      =  0.38000    
       ELAPSED SYSTEM TIME (SEC)    =  0.17000    
       ELAPSED TOTAL CPU TIME (SEC) =  0.55000    
       ELAPSED WALLCLOCK TIME (SEC) =          0
 

 ***WARNING: THE SYSTEM MATRIX HAS 3 NEGATIVE EIGENVALUES.

     NEGATIVE EIGENVALUES MEAN THAT THE SYSTEM MATRIX IS NOT 
     POSITIVE DEFINITE:
     FOR EXAMPLE, A BIFURCATION (BUCKLING) LOAD MAY HAVE BEEN EXCEEDED.
  
     ASYNCHRONOUS TRACKING ELEMENT LOOP STARTED
  

 ***WARNING: THE STRAIN INCREMENT HAS EXCEEDED FIFTY TIMES THE STRAIN TO CAUSE 
             FIRST YIELD AT 3 POINTS

                    9 SEVERE DISCONTINUITIES OCCURRED DURING THIS ITERATION.
                    4 POINTS CHANGED FROM OPEN TO CLOSED
                    1 POINTS CHANGED FROM SLIPPING TO STICKING
                    4 POINTS CHANGED FROM STICKING TO SLIPPING

               CONVERGENCE CHECKS FOR SEVERE DISCONTINUITY ITERATION     1

   MAX. PENETRATION ERROR 307.414E-03   AT NODE CAP-1.519 OF CONTACT PAIR 
   (ASSEMBLY_CAP-1_TRANSITION-AND-PUMP-CONTACT,ASSEMBLY_PUMP-TUBE-1_PISTON-CONTA
   CT)
   MAX. CONTACT FORCE ERROR 182.748E+03   AT NODE CAP-1.519 OF CONTACT PAIR 
   (ASSEMBLY_CAP-1_TRANSITION-AND-PUMP-CONTACT,ASSEMBLY_PUMP-TUBE-1_PISTON-CONTA
   CT)
          PENETRATION ERROR TOO LARGE COMPARED TO DISPLACEMENT INCREMENT.

 AVERAGE FORCE                       304.       TIME AVG. FORCE        74.7    
 LARGEST RESIDUAL FORCE            -7.511E+05   AT NODE        145   DOF  1
   INSTANCE: CAP-1                                                                           
 LARGEST INCREMENT OF DISP.         -2.48       AT NODE        519   DOF  2
   INSTANCE: CAP-1                                                                           
 LARGEST CORRECTION TO DISP.        -2.91       AT NODE        519   DOF  2
   INSTANCE: CAP-1                                                                           
          FORCE     EQUILIBRIUM NOT ACHIEVED WITHIN TOLERANCE.

  NUMBER OF EQUATIONS =    13596     NUMBER OF FLOATING PT. OPERATIONS =  3.35E+07

  USING THE DIRECT SOLVER WITH  12 PROCESSORS

     CHECK POINT   START OF SOLVER    

     CHECK POINT  END OF SOLVER       

       ELAPSED USER TIME (SEC)      =  0.37000    
       ELAPSED SYSTEM TIME (SEC)    =  0.18000    
       ELAPSED TOTAL CPU TIME (SEC) =  0.55000    
       ELAPSED WALLCLOCK TIME (SEC) =          0
 

 ***WARNING: THE SYSTEM MATRIX HAS 4 NEGATIVE EIGENVALUES.
             EXPLANATIONS ARE SUGGESTED AFTER THE FIRST OCCURRENCE OF THIS MESSAGE.
  
     ASYNCHRONOUS TRACKING ELEMENT LOOP STARTED
  

 ***WARNING: THE STRAIN INCREMENT HAS EXCEEDED FIFTY TIMES THE STRAIN TO CAUSE 
             FIRST YIELD AT 9 POINTS

                   65 SEVERE DISCONTINUITIES OCCURRED DURING THIS ITERATION.
                    3 POINTS CHANGED FROM OPEN TO CLOSED
                   58 POINTS CHANGED FROM CLOSED TO OPEN
                    4 POINTS CHANGED FROM STICKING TO SLIPPING

               CONVERGENCE CHECKS FOR SEVERE DISCONTINUITY ITERATION     2

   MAX. PENETRATION ERROR 124.681E-03   AT NODE CAP-1.149 OF CONTACT PAIR 
   (ASSEMBLY_CAP-1_TRANSITION-AND-PUMP-CONTACT,ASSEMBLY_PUMP-TUBE-1_PISTON-CONTA
   CT)
   MAX. CONTACT FORCE ERROR 70.6528E+03  AT NODE CAP-1.149 OF CONTACT PAIR 
   (ASSEMBLY_CAP-1_TRANSITION-AND-PUMP-CONTACT,ASSEMBLY_PUMP-TUBE-1_PISTON-CONTA
   CT)
          PENETRATION ERROR TOO LARGE COMPARED TO DISPLACEMENT INCREMENT.

 AVERAGE FORCE                       281.       TIME AVG. FORCE        70.2    
 LARGEST RESIDUAL FORCE            -2.879E+05   AT NODE        145   DOF  1
   INSTANCE: CAP-1                                                                           
 LARGEST INCREMENT OF DISP.          1.52       AT NODE        145   DOF  2
   INSTANCE: CAP-1                                                                           
 LARGEST CORRECTION TO DISP.         1.39       AT NODE        519   DOF  2
   INSTANCE: CAP-1                                                                           
          FORCE     EQUILIBRIUM NOT ACHIEVED WITHIN TOLERANCE.

  NUMBER OF EQUATIONS =    13596     NUMBER OF FLOATING PT. OPERATIONS =  2.99E+07

  USING THE DIRECT SOLVER WITH  12 PROCESSORS

     CHECK POINT   START OF SOLVER    

     CHECK POINT  END OF SOLVER       

       ELAPSED USER TIME (SEC)      =  0.40000    
       ELAPSED SYSTEM TIME (SEC)    =  0.15000    
       ELAPSED TOTAL CPU TIME (SEC) =  0.55000    
       ELAPSED WALLCLOCK TIME (SEC) =          0
 

 ***WARNING: THE SYSTEM MATRIX HAS 6 NEGATIVE EIGENVALUES.
             EXPLANATIONS ARE SUGGESTED AFTER THE FIRST OCCURRENCE OF THIS MESSAGE.
  
     ASYNCHRONOUS TRACKING ELEMENT LOOP STARTED
  

 ***WARNING: THE STRAIN INCREMENT HAS EXCEEDED FIFTY TIMES THE STRAIN TO CAUSE 
             FIRST YIELD AT 4 POINTS

                   86 SEVERE DISCONTINUITIES OCCURRED DURING THIS ITERATION.
                   42 POINTS CHANGED FROM OPEN TO CLOSED
                    2 POINTS CHANGED FROM CLOSED TO OPEN
                   42 POINTS CHANGED FROM STICKING TO SLIPPING

               CONVERGENCE CHECKS FOR SEVERE DISCONTINUITY ITERATION     3

   MAX. PENETRATION ERROR 219.717E-03   AT NODE CAP-1.69 OF CONTACT PAIR 
   (ASSEMBLY_CAP-1_TRANSITION-AND-PUMP-CONTACT,ASSEMBLY_TRANSITION-PIECE-1_END-C
   ONTACT)
   MAX. CONTACT FORCE ERROR 150.826E+03   AT NODE CAP-1.69 OF CONTACT PAIR 
   (ASSEMBLY_CAP-1_TRANSITION-AND-PUMP-CONTACT,ASSEMBLY_TRANSITION-PIECE-1_END-C
   ONTACT)
          PENETRATION ERROR TOO LARGE COMPARED TO DISPLACEMENT INCREMENT.

 AVERAGE FORCE                       139.       TIME AVG. FORCE        41.8    
 LARGEST RESIDUAL FORCE             1.157E+05   AT NODE        519   DOF  1
   INSTANCE: CAP-1                                                                           
 LARGEST INCREMENT OF DISP.          1.64       AT NODE          6   DOF  2
   INSTANCE: CAP-1                                                                           
 LARGEST CORRECTION TO DISP.       -0.841       AT NODE        149   DOF  2
   INSTANCE: CAP-1                                                                           
          FORCE     EQUILIBRIUM NOT ACHIEVED WITHIN TOLERANCE.

  NUMBER OF EQUATIONS =    13596     NUMBER OF FLOATING PT. OPERATIONS =  2.98E+07

  USING THE DIRECT SOLVER WITH  12 PROCESSORS

     CHECK POINT   START OF SOLVER    

     CHECK POINT  END OF SOLVER       

       ELAPSED USER TIME (SEC)      =  0.36000    
       ELAPSED SYSTEM TIME (SEC)    =  0.18000    
       ELAPSED TOTAL CPU TIME (SEC) =  0.54000    
       ELAPSED WALLCLOCK TIME (SEC) =          0
 

 ***WARNING: THE SYSTEM MATRIX HAS 4 NEGATIVE EIGENVALUES.
             EXPLANATIONS ARE SUGGESTED AFTER THE FIRST OCCURRENCE OF THIS MESSAGE.
  
     ASYNCHRONOUS TRACKING ELEMENT LOOP STARTED
  
   ELEMENT CAP-1.1 IS DISTORTING EXCESSIVELY.
   ELEMENT CAP-1.1 IS DISTORTING EXCESSIVELY.
   ELEMENT CAP-1.1 IS DISTORTING EXCESSIVELY.
   ELEMENT CAP-1.2 IS DISTORTING EXCESSIVELY.
   ELEMENT CAP-1.2 IS DISTORTING EXCESSIVELY.
   ELEMENT CAP-1.2 IS DISTORTING EXCESSIVELY.
   ELEMENT CAP-1.2 IS DISTORTING EXCESSIVELY.
   ELEMENT CAP-1.2 IS DISTORTING EXCESSIVELY.
   ELEMENT CAP-1.33 IS DISTORTING EXCESSIVELY.
   ELEMENT CAP-1.33 IS DISTORTING EXCESSIVELY.
   ELEMENT CAP-1.35 IS DISTORTING EXCESSIVELY.
   ELEMENT CAP-1.35 IS DISTORTING EXCESSIVELY.
   ELEMENT CAP-1.36 IS DISTORTING EXCESSIVELY.
   ELEMENT CAP-1.36 IS DISTORTING EXCESSIVELY.
   ELEMENT CAP-1.36 IS DISTORTING EXCESSIVELY.
   ELEMENT CAP-1.233 IS DISTORTING EXCESSIVELY.
   ELEMENT CAP-1.233 IS DISTORTING EXCESSIVELY.
   ELEMENT CAP-1.233 IS DISTORTING EXCESSIVELY.
   ELEMENT CAP-1.233 IS DISTORTING EXCESSIVELY.
   ELEMENT CAP-1.233 IS DISTORTING EXCESSIVELY.
   ELEMENT CAP-1.233 IS DISTORTING EXCESSIVELY.
   ELEMENT CAP-1.233 IS DISTORTING EXCESSIVELY.
   ELEMENT CAP-1.233 IS DISTORTING EXCESSIVELY.
   ELEMENT CAP-1.234 IS DISTORTING EXCESSIVELY.
   ELEMENT CAP-1.234 IS DISTORTING EXCESSIVELY.

 ***WARNING: EXCESSIVE DISTORTION AT A TOTAL OF 25 INTEGRATION POINTS IN SOLID 
             (CONTINUUM) ELEMENTS
 

 ***NOTE: ELEMENTS ARE DISTORTING EXCESSIVELY. CONVERGENCE IS JUDGED UNLIKELY.

 ***WARNING: CONVERGENCE JUDGED UNLIKELY.  INCREMENT WILL BE ATTEMPTED AGAIN 
             WITH A TIME INCREMENT OF 7.50000E-06


  INCREMENT     5 STARTS. ATTEMPT NUMBER  2, TIME INCREMENT  7.500E-06
  
     ASYNCHRONOUS TRACKING ELEMENT LOOP STARTED
  

  NUMBER OF EQUATIONS =    13596     NUMBER OF FLOATING PT. OPERATIONS =  3.40E+07

  USING THE DIRECT SOLVER WITH  12 PROCESSORS

     CHECK POINT   START OF SOLVER    

     CHECK POINT  END OF SOLVER       

       ELAPSED USER TIME (SEC)      =  0.40000    
       ELAPSED SYSTEM TIME (SEC)    =  0.16000    
       ELAPSED TOTAL CPU TIME (SEC) =  0.56000    
       ELAPSED WALLCLOCK TIME (SEC) =          0
  
     ASYNCHRONOUS TRACKING ELEMENT LOOP STARTED
  

               CONVERGENCE CHECKS FOR EQUILIBRIUM ITERATION     1

   MAX. PENETRATION ERROR 111.490E-06   AT NODE CAP-1.1 OF CONTACT PAIR 
   (ASSEMBLY_CAP-1_TRANSITION-AND-PUMP-CONTACT,ASSEMBLY_TRANSITION-PIECE-1_END-C
   ONTACT)
   MAX. CONTACT FORCE ERROR 37.3524      AT NODE CAP-1.1 OF CONTACT PAIR 
   (ASSEMBLY_CAP-1_TRANSITION-AND-PUMP-CONTACT,ASSEMBLY_TRANSITION-PIECE-1_END-C
   ONTACT)
          THE ESTIMATED CONTACT FORCE ERROR IS OUTSIDE OF CONVERGENCE TOLERANCES.

 AVERAGE FORCE                       82.0       TIME AVG. FORCE        30.4    
 LARGEST RESIDUAL FORCE              94.9       AT NODE          1   DOF  1
   INSTANCE: CAP-1                                                                           
 LARGEST INCREMENT OF DISP.         0.155       AT NODE          7   DOF  2
   INSTANCE: CAP-1                                                                           
 LARGEST CORRECTION TO DISP.       -1.892E-02   AT NODE          1   DOF  1
   INSTANCE: CAP-1                                                                           
          FORCE     EQUILIBRIUM NOT ACHIEVED WITHIN TOLERANCE.

  NUMBER OF EQUATIONS =    13596     NUMBER OF FLOATING PT. OPERATIONS =  3.40E+07

  USING THE DIRECT SOLVER WITH  12 PROCESSORS

     CHECK POINT   START OF SOLVER    

     CHECK POINT  END OF SOLVER       

       ELAPSED USER TIME (SEC)      =  0.39000    
       ELAPSED SYSTEM TIME (SEC)    =  0.16000    
       ELAPSED TOTAL CPU TIME (SEC) =  0.55000    
       ELAPSED WALLCLOCK TIME (SEC) =          0
  
     ASYNCHRONOUS TRACKING ELEMENT LOOP STARTED
  

               CONVERGENCE CHECKS FOR EQUILIBRIUM ITERATION     2

   MAX. PENETRATION ERROR 1.84056E-06 AT NODE CAP-1.1 OF CONTACT PAIR 
   (ASSEMBLY_CAP-1_TRANSITION-AND-PUMP-CONTACT,ASSEMBLY_TRANSITION-PIECE-1_END-C
   ONTACT)
   MAX. CONTACT FORCE ERROR 615.653E-03   AT NODE CAP-1.1 OF CONTACT PAIR 
   (ASSEMBLY_CAP-1_TRANSITION-AND-PUMP-CONTACT,ASSEMBLY_TRANSITION-PIECE-1_END-C
   ONTACT)
          THE CONTACT CONSTRAINTS HAVE CONVERGED.

 AVERAGE FORCE                       82.0       TIME AVG. FORCE        30.4    
 LARGEST RESIDUAL FORCE              1.80       AT NODE          1   DOF  1
   INSTANCE: CAP-1                                                                           
 LARGEST INCREMENT OF DISP.         0.155       AT NODE          7   DOF  2
   INSTANCE: CAP-1                                                                           
 LARGEST CORRECTION TO DISP.       -1.560E-03   AT NODE        519   DOF  2
   INSTANCE: CAP-1                                                                           
          FORCE     EQUILIBRIUM NOT ACHIEVED WITHIN TOLERANCE.

  NUMBER OF EQUATIONS =    13596     NUMBER OF FLOATING PT. OPERATIONS =  3.40E+07

  USING THE DIRECT SOLVER WITH  12 PROCESSORS

     CHECK POINT   START OF SOLVER    

     CHECK POINT  END OF SOLVER       

       ELAPSED USER TIME (SEC)      =  0.34000    
       ELAPSED SYSTEM TIME (SEC)    =  0.21000    
       ELAPSED TOTAL CPU TIME (SEC) =  0.55000    
       ELAPSED WALLCLOCK TIME (SEC) =          0
  
     ASYNCHRONOUS TRACKING ELEMENT LOOP STARTED
  

               CONVERGENCE CHECKS FOR EQUILIBRIUM ITERATION     3

   MAX. PENETRATION ERROR -20.8865E-09  AT NODE CAP-1.1 OF CONTACT PAIR 
   (ASSEMBLY_CAP-1_TRANSITION-AND-PUMP-CONTACT,ASSEMBLY_TRANSITION-PIECE-1_END-C
   ONTACT)
   MAX. CONTACT FORCE ERROR -6.98647E-03 AT NODE CAP-1.1 OF CONTACT PAIR 
   (ASSEMBLY_CAP-1_TRANSITION-AND-PUMP-CONTACT,ASSEMBLY_TRANSITION-PIECE-1_END-C
   ONTACT)
          THE CONTACT CONSTRAINTS HAVE CONVERGED.

 AVERAGE FORCE                       82.0       TIME AVG. FORCE        30.4    
 LARGEST RESIDUAL FORCE             4.358E-02   AT NODE        520   DOF  1
   INSTANCE: CAP-1                                                                           
 LARGEST INCREMENT OF DISP.         0.155       AT NODE          7   DOF  2
   INSTANCE: CAP-1                                                                           
 LARGEST CORRECTION TO DISP.        5.705E-05   AT NODE        145   DOF  1
   INSTANCE: CAP-1                                                                           
          THE FORCE     EQUILIBRIUM EQUATIONS HAVE CONVERGED
          TIME INCREMENT MAY NOW INCREASE TO    1.125E-05

 ITERATION SUMMARY FOR THE INCREMENT:   3 TOTAL ITERATIONS, OF WHICH
   0 ARE SEVERE DISCONTINUITY ITERATIONS AND  3 ARE EQUILIBRIUM ITERATIONS.

 TIME INCREMENT COMPLETED  7.500E-06,  FRACTION OF STEP COMPLETED  4.250E-02
 STEP TIME COMPLETED       1.275E-04,  TOTAL TIME COMPLETED        1.275E-04
  
     ASYNCHRONOUS OUTPUT DATABASE FRAME FLUSH STARTED
  


  INCREMENT     6 STARTS. ATTEMPT NUMBER  1, TIME INCREMENT  1.125E-05
  
     ASYNCHRONOUS TRACKING ELEMENT LOOP STARTED
  

  NUMBER OF EQUATIONS =    13596     NUMBER OF FLOATING PT. OPERATIONS =  3.46E+07

  USING THE DIRECT SOLVER WITH  12 PROCESSORS

     CHECK POINT   START OF SOLVER    

     CHECK POINT  END OF SOLVER       

       ELAPSED USER TIME (SEC)      =  0.39000    
       ELAPSED SYSTEM TIME (SEC)    =  0.15000    
       ELAPSED TOTAL CPU TIME (SEC) =  0.54000    
       ELAPSED WALLCLOCK TIME (SEC) =          0
  
     ASYNCHRONOUS TRACKING ELEMENT LOOP STARTED
  

                    1 SEVERE DISCONTINUITIES OCCURRED DURING THIS ITERATION.
                    1 POINTS CHANGED FROM CLOSED TO OPEN

               CONVERGENCE CHECKS FOR SEVERE DISCONTINUITY ITERATION     1

   MAX. PENETRATION ERROR 20.9466E-06  AT NODE CAP-1.519 OF CONTACT PAIR 
   (ASSEMBLY_CAP-1_TRANSITION-AND-PUMP-CONTACT,ASSEMBLY_TRANSITION-PIECE-1_END-C
   ONTACT)
   MAX. CONTACT FORCE ERROR -272.892       AT NODE CAP-1.31 OF CONTACT PAIR 
   (ASSEMBLY_CAP-1_TRANSITION-AND-PUMP-CONTACT,ASSEMBLY_PUMP-TUBE-1_PISTON-CONTA
   CT)
          THE ESTIMATED CONTACT FORCE ERROR IS OUTSIDE OF CONVERGENCE TOLERANCES.

 AVERAGE FORCE                       122.       TIME AVG. FORCE        45.7    
 LARGEST RESIDUAL FORCE              169.       AT NODE        400   DOF  1
   INSTANCE: PUMP-TUBE-1                                                                     
 LARGEST INCREMENT OF DISP.         0.221       AT NODE        218   DOF  2
   INSTANCE: CAP-1                                                                           
 LARGEST CORRECTION TO DISP.        2.729E-02   AT NODE         69   DOF  2
   INSTANCE: CAP-1                                                                           
          FORCE     EQUILIBRIUM NOT ACHIEVED WITHIN TOLERANCE.

  NUMBER OF EQUATIONS =    13596     NUMBER OF FLOATING PT. OPERATIONS =  3.45E+07

  USING THE DIRECT SOLVER WITH  12 PROCESSORS

     CHECK POINT   START OF SOLVER    

     CHECK POINT  END OF SOLVER       

       ELAPSED USER TIME (SEC)      =  0.37000    
       ELAPSED SYSTEM TIME (SEC)    =  0.17000    
       ELAPSED TOTAL CPU TIME (SEC) =  0.54000    
       ELAPSED WALLCLOCK TIME (SEC) =          1
  
     ASYNCHRONOUS TRACKING ELEMENT LOOP STARTED
  

               CONVERGENCE CHECKS FOR EQUILIBRIUM ITERATION     1

   MAX. PENETRATION ERROR 570.081E-09   AT NODE CAP-1.519 OF CONTACT PAIR 
   (ASSEMBLY_CAP-1_TRANSITION-AND-PUMP-CONTACT,ASSEMBLY_TRANSITION-PIECE-1_END-C
   ONTACT)
   MAX. CONTACT FORCE ERROR 210.381E-03   AT NODE CAP-1.519 OF CONTACT PAIR 
   (ASSEMBLY_CAP-1_TRANSITION-AND-PUMP-CONTACT,ASSEMBLY_TRANSITION-PIECE-1_END-C
   ONTACT)
          THE CONTACT CONSTRAINTS HAVE CONVERGED.

 AVERAGE FORCE                       122.       TIME AVG. FORCE        45.6    
 LARGEST RESIDUAL FORCE             -4.55       AT NODE        519   DOF  1
   INSTANCE: CAP-1                                                                           
 LARGEST INCREMENT OF DISP.         0.221       AT NODE          8   DOF  2
   INSTANCE: PISTON-1                                                                        
 LARGEST CORRECTION TO DISP.       -7.553E-03   AT NODE        519   DOF  2
   INSTANCE: CAP-1                                                                           
          FORCE     EQUILIBRIUM NOT ACHIEVED WITHIN TOLERANCE.

  NUMBER OF EQUATIONS =    13596     NUMBER OF FLOATING PT. OPERATIONS =  3.45E+07

  USING THE DIRECT SOLVER WITH  12 PROCESSORS

     CHECK POINT   START OF SOLVER    

     CHECK POINT  END OF SOLVER       

       ELAPSED USER TIME (SEC)      =  0.37000    
       ELAPSED SYSTEM TIME (SEC)    =  0.17000    
       ELAPSED TOTAL CPU TIME (SEC) =  0.54000    
       ELAPSED WALLCLOCK TIME (SEC) =          0
  
     ASYNCHRONOUS TRACKING ELEMENT LOOP STARTED
  

               CONVERGENCE CHECKS FOR EQUILIBRIUM ITERATION     2

   MAX. PENETRATION ERROR -535.427E-12   AT NODE CAP-1.1 OF CONTACT PAIR 
   (ASSEMBLY_CAP-1_TRANSITION-AND-PUMP-CONTACT,ASSEMBLY_TRANSITION-PIECE-1_END-C
   ONTACT)
   MAX. CONTACT FORCE ERROR -179.851E-06   AT NODE CAP-1.1 OF CONTACT PAIR 
   (ASSEMBLY_CAP-1_TRANSITION-AND-PUMP-CONTACT,ASSEMBLY_TRANSITION-PIECE-1_END-C
   ONTACT)
          THE CONTACT CONSTRAINTS HAVE CONVERGED.

 AVERAGE FORCE                       122.       TIME AVG. FORCE        45.6    
 LARGEST RESIDUAL FORCE             0.122       AT NODE        145   DOF  2
   INSTANCE: CAP-1                                                                           
 LARGEST INCREMENT OF DISP.         0.221       AT NODE          8   DOF  2
   INSTANCE: PISTON-1                                                                        
 LARGEST CORRECTION TO DISP.        3.349E-04   AT NODE        519   DOF  2
   INSTANCE: CAP-1                                                                           
          THE FORCE     EQUILIBRIUM EQUATIONS HAVE CONVERGED
          TIME INCREMENT MAY NOW INCREASE TO    1.688E-05
          TIME INCREMENT REDUCED TO   1.125E-05 TO MEET NEXT OUTPUT TIME POINT

 ITERATION SUMMARY FOR THE INCREMENT:   3 TOTAL ITERATIONS, OF WHICH
   1 ARE SEVERE DISCONTINUITY ITERATIONS AND  2 ARE EQUILIBRIUM ITERATIONS.

 TIME INCREMENT COMPLETED  1.125E-05,  FRACTION OF STEP COMPLETED  4.625E-02
 STEP TIME COMPLETED       1.388E-04,  TOTAL TIME COMPLETED        1.388E-04
  
     ASYNCHRONOUS OUTPUT DATABASE FRAME FLUSH STARTED
  


  INCREMENT     7 STARTS. ATTEMPT NUMBER  1, TIME INCREMENT  1.125E-05
  
     ASYNCHRONOUS TRACKING ELEMENT LOOP STARTED
  

  NUMBER OF EQUATIONS =    13596     NUMBER OF FLOATING PT. OPERATIONS =  3.53E+07

  USING THE DIRECT SOLVER WITH  12 PROCESSORS

     CHECK POINT   START OF SOLVER    

     CHECK POINT  END OF SOLVER       

       ELAPSED USER TIME (SEC)      =  0.40000    
       ELAPSED SYSTEM TIME (SEC)    =  0.17000    
       ELAPSED TOTAL CPU TIME (SEC) =  0.57000    
       ELAPSED WALLCLOCK TIME (SEC) =          0
  
     ASYNCHRONOUS TRACKING ELEMENT LOOP STARTED
  

               CONVERGENCE CHECKS FOR EQUILIBRIUM ITERATION     1

   MAX. PENETRATION ERROR -125.742E-06   AT NODE CAP-1.1 OF CONTACT PAIR 
   (ASSEMBLY_CAP-1_TRANSITION-AND-PUMP-CONTACT,ASSEMBLY_TRANSITION-PIECE-1_END-C
   ONTACT)
   MAX. CONTACT FORCE ERROR -57.5761      AT NODE CAP-1.1 OF CONTACT PAIR 
   (ASSEMBLY_CAP-1_TRANSITION-AND-PUMP-CONTACT,ASSEMBLY_TRANSITION-PIECE-1_END-C
   ONTACT)
          THE ESTIMATED CONTACT FORCE ERROR IS OUTSIDE OF CONVERGENCE TOLERANCES.

 AVERAGE FORCE                       164.       TIME AVG. FORCE        62.5    
 LARGEST RESIDUAL FORCE              232.       AT NODE        519   DOF  1
   INSTANCE: CAP-1                                                                           
 LARGEST INCREMENT OF DISP.         0.231       AT NODE          6   DOF  2
   INSTANCE: CAP-1                                                                           
 LARGEST CORRECTION TO DISP.       -2.728E-02   AT NODE          1   DOF  2
   INSTANCE: CAP-1                                                                           
          FORCE     EQUILIBRIUM NOT ACHIEVED WITHIN TOLERANCE.

  NUMBER OF EQUATIONS =    13596     NUMBER OF FLOATING PT. OPERATIONS =  3.53E+07

  USING THE DIRECT SOLVER WITH  12 PROCESSORS

     CHECK POINT   START OF SOLVER    

     CHECK POINT  END OF SOLVER       

       ELAPSED USER TIME (SEC)      =  0.42000    
       ELAPSED SYSTEM TIME (SEC)    =  0.14000    
       ELAPSED TOTAL CPU TIME (SEC) =  0.56000    
       ELAPSED WALLCLOCK TIME (SEC) =          0
  
     ASYNCHRONOUS TRACKING ELEMENT LOOP STARTED
  

               CONVERGENCE CHECKS FOR EQUILIBRIUM ITERATION     2

   MAX. PENETRATION ERROR -7.29825E-06 AT NODE CAP-1.1 OF CONTACT PAIR 
   (ASSEMBLY_CAP-1_TRANSITION-AND-PUMP-CONTACT,ASSEMBLY_TRANSITION-PIECE-1_END-C
   ONTACT)
   MAX. CONTACT FORCE ERROR -3.34876     AT NODE CAP-1.1 OF CONTACT PAIR 
   (ASSEMBLY_CAP-1_TRANSITION-AND-PUMP-CONTACT,ASSEMBLY_TRANSITION-PIECE-1_END-C
   ONTACT)
          THE CONTACT CONSTRAINTS HAVE CONVERGED.

 AVERAGE FORCE                       164.       TIME AVG. FORCE        62.5    
 LARGEST RESIDUAL FORCE             -8.33       AT NODE        519   DOF  2
   INSTANCE: CAP-1                                                                           
 LARGEST INCREMENT OF DISP.         0.231       AT NODE          6   DOF  2
   INSTANCE: CAP-1                                                                           
 LARGEST CORRECTION TO DISP.        4.911E-03   AT NODE        519   DOF  2
   INSTANCE: CAP-1                                                                           
          FORCE     EQUILIBRIUM NOT ACHIEVED WITHIN TOLERANCE.

  NUMBER OF EQUATIONS =    13596     NUMBER OF FLOATING PT. OPERATIONS =  3.53E+07

  USING THE DIRECT SOLVER WITH  12 PROCESSORS

     CHECK POINT   START OF SOLVER    

     CHECK POINT  END OF SOLVER       

       ELAPSED USER TIME (SEC)      =  0.41000    
       ELAPSED SYSTEM TIME (SEC)    =  0.15000    
       ELAPSED TOTAL CPU TIME (SEC) =  0.56000    
       ELAPSED WALLCLOCK TIME (SEC) =          0
  
     ASYNCHRONOUS TRACKING ELEMENT LOOP STARTED
  

               CONVERGENCE CHECKS FOR EQUILIBRIUM ITERATION     3

   MAX. PENETRATION ERROR -159.174E-09   AT NODE CAP-1.1 OF CONTACT PAIR 
   (ASSEMBLY_CAP-1_TRANSITION-AND-PUMP-CONTACT,ASSEMBLY_TRANSITION-PIECE-1_END-C
   ONTACT)
   MAX. CONTACT FORCE ERROR -73.0264E-03  AT NODE CAP-1.1 OF CONTACT PAIR 
   (ASSEMBLY_CAP-1_TRANSITION-AND-PUMP-CONTACT,ASSEMBLY_TRANSITION-PIECE-1_END-C
   ONTACT)
          THE CONTACT CONSTRAINTS HAVE CONVERGED.

 AVERAGE FORCE                       164.       TIME AVG. FORCE        62.5    
 LARGEST RESIDUAL FORCE             0.138       AT NODE        519   DOF  2
   INSTANCE: CAP-1                                                                           
 LARGEST INCREMENT OF DISP.         0.231       AT NODE          6   DOF  2
   INSTANCE: CAP-1                                                                           
 LARGEST CORRECTION TO DISP.       -2.520E-04   AT NODE        519   DOF  2
   INSTANCE: CAP-1                                                                           
          THE FORCE     EQUILIBRIUM EQUATIONS HAVE CONVERGED
          TIME INCREMENT MAY NOW INCREASE TO    1.688E-05

 ITERATION SUMMARY FOR THE INCREMENT:   3 TOTAL ITERATIONS, OF WHICH
   0 ARE SEVERE DISCONTINUITY ITERATIONS AND  3 ARE EQUILIBRIUM ITERATIONS.

 TIME INCREMENT COMPLETED  1.125E-05,  FRACTION OF STEP COMPLETED  5.000E-02
 STEP TIME COMPLETED       1.500E-04,  TOTAL TIME COMPLETED        1.500E-04
  
     ASYNCHRONOUS OUTPUT DATABASE FRAME FLUSH STARTED
  


  INCREMENT     8 STARTS. ATTEMPT NUMBER  1, TIME INCREMENT  1.688E-05
  
     ASYNCHRONOUS TRACKING ELEMENT LOOP STARTED
  

  NUMBER OF EQUATIONS =    13596     NUMBER OF FLOATING PT. OPERATIONS =  3.53E+07

  USING THE DIRECT SOLVER WITH  12 PROCESSORS

     CHECK POINT   START OF SOLVER    

     CHECK POINT  END OF SOLVER       

       ELAPSED USER TIME (SEC)      =  0.36000    
       ELAPSED SYSTEM TIME (SEC)    =  0.18000    
       ELAPSED TOTAL CPU TIME (SEC) =  0.54000    
       ELAPSED WALLCLOCK TIME (SEC) =          0
  
     ASYNCHRONOUS TRACKING ELEMENT LOOP STARTED
  

                    8 SEVERE DISCONTINUITIES OCCURRED DURING THIS ITERATION.
                    4 POINTS CHANGED FROM OPEN TO CLOSED
                    4 POINTS CHANGED FROM STICKING TO SLIPPING

               CONVERGENCE CHECKS FOR SEVERE DISCONTINUITY ITERATION     1

   MAX. PENETRATION ERROR 58.1516E-03  AT NODE CAP-1.69 OF CONTACT PAIR 
   (ASSEMBLY_CAP-1_TRANSITION-AND-PUMP-CONTACT,ASSEMBLY_TRANSITION-PIECE-1_END-C
   ONTACT)
   MAX. CONTACT FORCE ERROR 32.4359E+03  AT NODE CAP-1.149 OF CONTACT PAIR 
   (ASSEMBLY_CAP-1_TRANSITION-AND-PUMP-CONTACT,ASSEMBLY_PUMP-TUBE-1_PISTON-CONTA
   CT)
          PENETRATION ERROR TOO LARGE COMPARED TO DISPLACEMENT INCREMENT.

 AVERAGE FORCE                       179.       TIME AVG. FORCE        77.1    
 LARGEST RESIDUAL FORCE             2.995E+03   AT NODE          1   DOF  1
   INSTANCE: CAP-1                                                                           
 LARGEST INCREMENT OF DISP.         0.345       AT NODE        145   DOF  2
   INSTANCE: CAP-1                                                                           
 LARGEST CORRECTION TO DISP.       -9.876E-02   AT NODE        145   DOF  1
   INSTANCE: CAP-1                                                                           
          FORCE     EQUILIBRIUM NOT ACHIEVED WITHIN TOLERANCE.

  NUMBER OF EQUATIONS =    13596     NUMBER OF FLOATING PT. OPERATIONS =  3.46E+07

  USING THE DIRECT SOLVER WITH  12 PROCESSORS

     CHECK POINT   START OF SOLVER    

     CHECK POINT  END OF SOLVER       

       ELAPSED USER TIME (SEC)      =  0.39000    
       ELAPSED SYSTEM TIME (SEC)    =  0.18000    
       ELAPSED TOTAL CPU TIME (SEC) =  0.57000    
       ELAPSED WALLCLOCK TIME (SEC) =          1
  
     ASYNCHRONOUS TRACKING ELEMENT LOOP STARTED
  

 ***WARNING: THE STRAIN INCREMENT HAS EXCEEDED FIFTY TIMES THE STRAIN TO CAUSE 
             FIRST YIELD AT 2 POINTS

                    3 SEVERE DISCONTINUITIES OCCURRED DURING THIS ITERATION.
                    1 POINTS CHANGED FROM OPEN TO CLOSED
                    1 POINTS CHANGED FROM CLOSED TO OPEN
                    1 POINTS CHANGED FROM STICKING TO SLIPPING

               CONVERGENCE CHECKS FOR SEVERE DISCONTINUITY ITERATION     2

   MAX. PENETRATION ERROR 3.87628E-03 AT NODE CAP-1.519 OF CONTACT PAIR 
   (ASSEMBLY_CAP-1_TRANSITION-AND-PUMP-CONTACT,ASSEMBLY_TRANSITION-PIECE-1_END-C
   ONTACT)
   MAX. CONTACT FORCE ERROR 1.38301E+03 AT NODE CAP-1.519 OF CONTACT PAIR 
   (ASSEMBLY_CAP-1_TRANSITION-AND-PUMP-CONTACT,ASSEMBLY_TRANSITION-PIECE-1_END-C
   ONTACT)
          PENETRATION ERROR TOO LARGE COMPARED TO DISPLACEMENT INCREMENT.

 AVERAGE FORCE                       210.       TIME AVG. FORCE        80.9    
 LARGEST RESIDUAL FORCE            -8.793E+04   AT NODE        519   DOF  2
   INSTANCE: CAP-1                                                                           
 LARGEST INCREMENT OF DISP.         0.653       AT NODE        519   DOF  2
   INSTANCE: CAP-1                                                                           
 LARGEST CORRECTION TO DISP.        0.320       AT NODE        519   DOF  2
   INSTANCE: CAP-1                                                                           
          FORCE     EQUILIBRIUM NOT ACHIEVED WITHIN TOLERANCE.

  NUMBER OF EQUATIONS =    13596     NUMBER OF FLOATING PT. OPERATIONS =  3.66E+07

  USING THE DIRECT SOLVER WITH  12 PROCESSORS

     CHECK POINT   START OF SOLVER    

     CHECK POINT  END OF SOLVER       

       ELAPSED USER TIME (SEC)      =  0.42000    
       ELAPSED SYSTEM TIME (SEC)    =  0.15000    
       ELAPSED TOTAL CPU TIME (SEC) =  0.57000    
       ELAPSED WALLCLOCK TIME (SEC) =          0
 

 ***WARNING: THE SYSTEM MATRIX HAS 2 NEGATIVE EIGENVALUES.
             EXPLANATIONS ARE SUGGESTED AFTER THE FIRST OCCURRENCE OF THIS MESSAGE.
  
     ASYNCHRONOUS TRACKING ELEMENT LOOP STARTED
  

               CONVERGENCE CHECKS FOR EQUILIBRIUM ITERATION     1

   MAX. PENETRATION ERROR 3.37728E-03 AT NODE CAP-1.1 OF CONTACT PAIR 
   (ASSEMBLY_CAP-1_TRANSITION-AND-PUMP-CONTACT,ASSEMBLY_TRANSITION-PIECE-1_END-C
   ONTACT)
   MAX. CONTACT FORCE ERROR 2.32721E+03 AT NODE CAP-1.149 OF CONTACT PAIR 
   (ASSEMBLY_CAP-1_TRANSITION-AND-PUMP-CONTACT,ASSEMBLY_PUMP-TUBE-1_PISTON-CONTA
   CT)
          PENETRATION ERROR TOO LARGE COMPARED TO DISPLACEMENT INCREMENT.

 AVERAGE FORCE                       198.       TIME AVG. FORCE        79.4    
 LARGEST RESIDUAL FORCE            -1.848E+04   AT NODE        520   DOF  1
   INSTANCE: CAP-1                                                                           
 LARGEST INCREMENT OF DISP.         0.473       AT NODE        519   DOF  2
   INSTANCE: CAP-1                                                                           
 LARGEST CORRECTION TO DISP.       -0.294       AT NODE         69   DOF  2
   INSTANCE: CAP-1                                                                           
          FORCE     EQUILIBRIUM NOT ACHIEVED WITHIN TOLERANCE.

  NUMBER OF EQUATIONS =    13596     NUMBER OF FLOATING PT. OPERATIONS =  3.66E+07

  USING THE DIRECT SOLVER WITH  12 PROCESSORS

     CHECK POINT   START OF SOLVER    

     CHECK POINT  END OF SOLVER       

       ELAPSED USER TIME (SEC)      =  0.37000    
       ELAPSED SYSTEM TIME (SEC)    =  0.19000    
       ELAPSED TOTAL CPU TIME (SEC) =  0.56000    
       ELAPSED WALLCLOCK TIME (SEC) =          0
 

 ***WARNING: THE SYSTEM MATRIX HAS 2 NEGATIVE EIGENVALUES.
             EXPLANATIONS ARE SUGGESTED AFTER THE FIRST OCCURRENCE OF THIS MESSAGE.
  
     ASYNCHRONOUS TRACKING ELEMENT LOOP STARTED
  

 ***WARNING: THE STRAIN INCREMENT HAS EXCEEDED FIFTY TIMES THE STRAIN TO CAUSE 
             FIRST YIELD AT 3 POINTS

                    5 SEVERE DISCONTINUITIES OCCURRED DURING THIS ITERATION.
                    1 POINTS CHANGED FROM OPEN TO CLOSED
                    3 POINTS CHANGED FROM CLOSED TO OPEN
                    1 POINTS CHANGED FROM STICKING TO SLIPPING

               CONVERGENCE CHECKS FOR SEVERE DISCONTINUITY ITERATION     3

   MAX. PENETRATION ERROR 52.1573E-03  AT NODE CAP-1.32 OF CONTACT PAIR 
   (ASSEMBLY_CAP-1_TRANSITION-AND-PUMP-CONTACT,ASSEMBLY_PUMP-TUBE-1_PISTON-CONTA
   CT)
   MAX. CONTACT FORCE ERROR 57.5143E+03  AT NODE CAP-1.32 OF CONTACT PAIR 
   (ASSEMBLY_CAP-1_TRANSITION-AND-PUMP-CONTACT,ASSEMBLY_PUMP-TUBE-1_PISTON-CONTA
   CT)
          PENETRATION ERROR TOO LARGE COMPARED TO DISPLACEMENT INCREMENT.

 AVERAGE FORCE                       336.       TIME AVG. FORCE        96.7    
 LARGEST RESIDUAL FORCE            -6.060E+05   AT NODE        145   DOF  1
   INSTANCE: CAP-1                                                                           
 LARGEST INCREMENT OF DISP.          2.09       AT NODE         69   DOF  2
   INSTANCE: CAP-1                                                                           
 LARGEST CORRECTION TO DISP.         2.13       AT NODE         69   DOF  2
   INSTANCE: CAP-1                                                                           
          FORCE     EQUILIBRIUM NOT ACHIEVED WITHIN TOLERANCE.

  NUMBER OF EQUATIONS =    13596     NUMBER OF FLOATING PT. OPERATIONS =  3.29E+07

  USING THE DIRECT SOLVER WITH  12 PROCESSORS

     CHECK POINT   START OF SOLVER    

     CHECK POINT  END OF SOLVER       

       ELAPSED USER TIME (SEC)      =  0.39000    
       ELAPSED SYSTEM TIME (SEC)    =  0.17000    
       ELAPSED TOTAL CPU TIME (SEC) =  0.56000    
       ELAPSED WALLCLOCK TIME (SEC) =          0
 

 ***WARNING: THE SYSTEM MATRIX HAS 6 NEGATIVE EIGENVALUES.
             EXPLANATIONS ARE SUGGESTED AFTER THE FIRST OCCURRENCE OF THIS MESSAGE.
  
     ASYNCHRONOUS TRACKING ELEMENT LOOP STARTED
  

 ***WARNING: THE STRAIN INCREMENT HAS EXCEEDED FIFTY TIMES THE STRAIN TO CAUSE 
             FIRST YIELD AT 11 POINTS

                    2 SEVERE DISCONTINUITIES OCCURRED DURING THIS ITERATION.
                    2 POINTS CHANGED FROM CLOSED TO OPEN

               CONVERGENCE CHECKS FOR SEVERE DISCONTINUITY ITERATION     4

   MAX. PENETRATION ERROR 16.2350E-03  AT NODE CAP-1.1 OF CONTACT PAIR 
   (ASSEMBLY_CAP-1_TRANSITION-AND-PUMP-CONTACT,ASSEMBLY_TRANSITION-PIECE-1_END-C
   ONTACT)
   MAX. CONTACT FORCE ERROR -90.3721E+03  AT NODE CAP-1.519 OF CONTACT PAIR 
   (ASSEMBLY_CAP-1_TRANSITION-AND-PUMP-CONTACT,ASSEMBLY_TRANSITION-PIECE-1_END-C
   ONTACT)
          THE ESTIMATED CONTACT FORCE ERROR IS OUTSIDE OF CONVERGENCE TOLERANCES.

 AVERAGE FORCE                       730.       TIME AVG. FORCE        146.    
 LARGEST RESIDUAL FORCE            -1.516E+06   AT NODE        520   DOF  1
   INSTANCE: CAP-1                                                                           
 LARGEST INCREMENT OF DISP.          3.46       AT NODE        519   DOF  2
   INSTANCE: CAP-1                                                                           
 LARGEST CORRECTION TO DISP.         2.94       AT NODE        519   DOF  2
   INSTANCE: CAP-1                                                                           
          FORCE     EQUILIBRIUM NOT ACHIEVED WITHIN TOLERANCE.

  NUMBER OF EQUATIONS =    13596     NUMBER OF FLOATING PT. OPERATIONS =  3.28E+07

  USING THE DIRECT SOLVER WITH  12 PROCESSORS

     CHECK POINT   START OF SOLVER    

     CHECK POINT  END OF SOLVER       

       ELAPSED USER TIME (SEC)      =  0.44000    
       ELAPSED SYSTEM TIME (SEC)    =  0.10000    
       ELAPSED TOTAL CPU TIME (SEC) =  0.54000    
       ELAPSED WALLCLOCK TIME (SEC) =          0
 

 ***WARNING: THE SYSTEM MATRIX HAS 14 NEGATIVE EIGENVALUES.
             EXPLANATIONS ARE SUGGESTED AFTER THE FIRST OCCURRENCE OF THIS MESSAGE.
  
     ASYNCHRONOUS TRACKING ELEMENT LOOP STARTED
  

 ***WARNING: THE STRAIN INCREMENT HAS EXCEEDED FIFTY TIMES THE STRAIN TO CAUSE 
             FIRST YIELD AT 31 POINTS

                   11 SEVERE DISCONTINUITIES OCCURRED DURING THIS ITERATION.
                    4 POINTS CHANGED FROM OPEN TO CLOSED
                    4 POINTS CHANGED FROM CLOSED TO OPEN
                    3 POINTS CHANGED FROM STICKING TO SLIPPING

               CONVERGENCE CHECKS FOR SEVERE DISCONTINUITY ITERATION     5

   MAX. PENETRATION ERROR 313.677E-03   AT NODE CAP-1.149 OF CONTACT PAIR 
   (ASSEMBLY_CAP-1_TRANSITION-AND-PUMP-CONTACT,ASSEMBLY_PUMP-TUBE-1_PISTON-CONTA
   CT)
   MAX. CONTACT FORCE ERROR 178.380E+03   AT NODE CAP-1.149 OF CONTACT PAIR 
   (ASSEMBLY_CAP-1_TRANSITION-AND-PUMP-CONTACT,ASSEMBLY_PUMP-TUBE-1_PISTON-CONTA
   CT)
          PENETRATION ERROR TOO LARGE COMPARED TO DISPLACEMENT INCREMENT.

 AVERAGE FORCE                       947.       TIME AVG. FORCE        173.    
 LARGEST RESIDUAL FORCE            -1.083E+06   AT NODE        146   DOF  1
   INSTANCE: CAP-1                                                                           
 LARGEST INCREMENT OF DISP.          3.19       AT NODE        519   DOF  2
   INSTANCE: CAP-1                                                                           
 LARGEST CORRECTION TO DISP.         1.95       AT NODE        217   DOF  2
   INSTANCE: CAP-1                                                                           
          FORCE     EQUILIBRIUM NOT ACHIEVED WITHIN TOLERANCE.
 

 ***NOTE: THE SOLUTION APPEARS TO BE DIVERGING. CONVERGENCE IS JUDGED UNLIKELY.


  INCREMENT     8 STARTS. ATTEMPT NUMBER  2, TIME INCREMENT  4.219E-06
  
     ASYNCHRONOUS TRACKING ELEMENT LOOP STARTED
  

  NUMBER OF EQUATIONS =    13596     NUMBER OF FLOATING PT. OPERATIONS =  3.28E+07

  USING THE DIRECT SOLVER WITH  12 PROCESSORS

     CHECK POINT   START OF SOLVER    

     CHECK POINT  END OF SOLVER       

       ELAPSED USER TIME (SEC)      =  0.38000    
       ELAPSED SYSTEM TIME (SEC)    =  0.17000    
       ELAPSED TOTAL CPU TIME (SEC) =  0.55000    
       ELAPSED WALLCLOCK TIME (SEC) =          0
  
     ASYNCHRONOUS TRACKING ELEMENT LOOP STARTED
  

                    2 SEVERE DISCONTINUITIES OCCURRED DURING THIS ITERATION.
                    1 POINTS CHANGED FROM OPEN TO CLOSED
                    1 POINTS CHANGED FROM STICKING TO SLIPPING

               CONVERGENCE CHECKS FOR SEVERE DISCONTINUITY ITERATION     1

   MAX. PENETRATION ERROR 6.52163E-03 AT NODE CAP-1.149 OF CONTACT PAIR 
   (ASSEMBLY_CAP-1_TRANSITION-AND-PUMP-CONTACT,ASSEMBLY_PUMP-TUBE-1_PISTON-CONTA
   CT)
   MAX. CONTACT FORCE ERROR 5.49685E+03 AT NODE CAP-1.149 OF CONTACT PAIR 
   (ASSEMBLY_CAP-1_TRANSITION-AND-PUMP-CONTACT,ASSEMBLY_PUMP-TUBE-1_PISTON-CONTA
   CT)
          PENETRATION ERROR TOO LARGE COMPARED TO DISPLACEMENT INCREMENT.

 AVERAGE FORCE                       170.       TIME AVG. FORCE        76.0    
 LARGEST RESIDUAL FORCE              80.0       AT NODE        145   DOF  2
   INSTANCE: CAP-1                                                                           
 LARGEST INCREMENT OF DISP.         8.557E-02   AT NODE          6   DOF  2
   INSTANCE: CAP-1                                                                           
 LARGEST CORRECTION TO DISP.       -1.180E-02   AT NODE        145   DOF  1
   INSTANCE: CAP-1                                                                           
          FORCE     EQUILIBRIUM NOT ACHIEVED WITHIN TOLERANCE.

  NUMBER OF EQUATIONS =    13596     NUMBER OF FLOATING PT. OPERATIONS =  3.28E+07

  USING THE DIRECT SOLVER WITH  12 PROCESSORS

     CHECK POINT   START OF SOLVER    

     CHECK POINT  END OF SOLVER       

       ELAPSED USER TIME (SEC)      =  0.42000    
       ELAPSED SYSTEM TIME (SEC)    =  0.13000    
       ELAPSED TOTAL CPU TIME (SEC) =  0.55000    
       ELAPSED WALLCLOCK TIME (SEC) =          1
  
     ASYNCHRONOUS TRACKING ELEMENT LOOP STARTED
  

                    2 SEVERE DISCONTINUITIES OCCURRED DURING THIS ITERATION.
                    1 POINTS CHANGED FROM OPEN TO CLOSED
                    1 POINTS CHANGED FROM STICKING TO SLIPPING

               CONVERGENCE CHECKS FOR SEVERE DISCONTINUITY ITERATION     2

   MAX. PENETRATION ERROR 268.683E-06   AT NODE CAP-1.31 OF CONTACT PAIR 
   (ASSEMBLY_CAP-1_TRANSITION-AND-PUMP-CONTACT,ASSEMBLY_PUMP-TUBE-1_PISTON-CONTA
   CT)
   MAX. CONTACT FORCE ERROR 268.760       AT NODE CAP-1.31 OF CONTACT PAIR 
   (ASSEMBLY_CAP-1_TRANSITION-AND-PUMP-CONTACT,ASSEMBLY_PUMP-TUBE-1_PISTON-CONTA
   CT)
          THE ESTIMATED CONTACT FORCE ERROR IS OUTSIDE OF CONVERGENCE TOLERANCES.

 AVERAGE FORCE                       171.       TIME AVG. FORCE        76.1    
 LARGEST RESIDUAL FORCE             -22.6       AT NODE        146   DOF  1
   INSTANCE: CAP-1                                                                           
 LARGEST INCREMENT OF DISP.         8.655E-02   AT NODE          6   DOF  2
   INSTANCE: CAP-1                                                                           
 LARGEST CORRECTION TO DISP.       -1.065E-02   AT NODE        149   DOF  1
   INSTANCE: CAP-1                                                                           
          FORCE     EQUILIBRIUM NOT ACHIEVED WITHIN TOLERANCE.

  NUMBER OF EQUATIONS =    13596     NUMBER OF FLOATING PT. OPERATIONS =  3.28E+07

  USING THE DIRECT SOLVER WITH  12 PROCESSORS

     CHECK POINT   START OF SOLVER    

     CHECK POINT  END OF SOLVER       

       ELAPSED USER TIME (SEC)      =  0.36000    
       ELAPSED SYSTEM TIME (SEC)    =  0.18000    
       ELAPSED TOTAL CPU TIME (SEC) =  0.54000    
       ELAPSED WALLCLOCK TIME (SEC) =          0
  
     ASYNCHRONOUS TRACKING ELEMENT LOOP STARTED
  

               CONVERGENCE CHECKS FOR EQUILIBRIUM ITERATION     1

   MAX. PENETRATION ERROR -132.799E-09   AT NODE CAP-1.1 OF CONTACT PAIR 
   (ASSEMBLY_CAP-1_TRANSITION-AND-PUMP-CONTACT,ASSEMBLY_TRANSITION-PIECE-1_END-C
   ONTACT)
   MAX. CONTACT FORCE ERROR -61.5851E-03  AT NODE CAP-1.1 OF CONTACT PAIR 
   (ASSEMBLY_CAP-1_TRANSITION-AND-PUMP-CONTACT,ASSEMBLY_TRANSITION-PIECE-1_END-C
   ONTACT)
          THE CONTACT CONSTRAINTS HAVE CONVERGED.

 AVERAGE FORCE                       171.       TIME AVG. FORCE        76.1    
 LARGEST RESIDUAL FORCE            -0.836       AT NODE        145   DOF  1
   INSTANCE: CAP-1                                                                           
 LARGEST INCREMENT OF DISP.         8.658E-02   AT NODE          6   DOF  2
   INSTANCE: CAP-1                                                                           
 LARGEST CORRECTION TO DISP.        4.790E-04   AT NODE        145   DOF  1
   INSTANCE: CAP-1                                                                           
          FORCE     EQUILIBRIUM NOT ACHIEVED WITHIN TOLERANCE.

  NUMBER OF EQUATIONS =    13596     NUMBER OF FLOATING PT. OPERATIONS =  3.28E+07

  USING THE DIRECT SOLVER WITH  12 PROCESSORS

     CHECK POINT   START OF SOLVER    

     CHECK POINT  END OF SOLVER       

       ELAPSED USER TIME (SEC)      =  0.40000    
       ELAPSED SYSTEM TIME (SEC)    =  0.14000    
       ELAPSED TOTAL CPU TIME (SEC) =  0.54000    
       ELAPSED WALLCLOCK TIME (SEC) =          0
  
     ASYNCHRONOUS TRACKING ELEMENT LOOP STARTED
  

               CONVERGENCE CHECKS FOR EQUILIBRIUM ITERATION     2

   MAX. PENETRATION ERROR -760.863E-12   AT NODE CAP-1.1 OF CONTACT PAIR 
   (ASSEMBLY_CAP-1_TRANSITION-AND-PUMP-CONTACT,ASSEMBLY_TRANSITION-PIECE-1_END-C
   ONTACT)
   MAX. CONTACT FORCE ERROR -352.848E-06   AT NODE CAP-1.1 OF CONTACT PAIR 
   (ASSEMBLY_CAP-1_TRANSITION-AND-PUMP-CONTACT,ASSEMBLY_TRANSITION-PIECE-1_END-C
   ONTACT)
          THE CONTACT CONSTRAINTS HAVE CONVERGED.

 AVERAGE FORCE                       171.       TIME AVG. FORCE        76.1    
 LARGEST RESIDUAL FORCE             4.218E-03   AT NODE        520   DOF  1
   INSTANCE: CAP-1                                                                           
 LARGEST INCREMENT OF DISP.         8.658E-02   AT NODE          6   DOF  2
   INSTANCE: CAP-1                                                                           
 LARGEST CORRECTION TO DISP.        7.061E-06   AT NODE         69   DOF  2
   INSTANCE: CAP-1                                                                           
          THE FORCE     EQUILIBRIUM EQUATIONS HAVE CONVERGED
          TIME INCREMENT MAY NOW INCREASE TO    6.328E-06

 ITERATION SUMMARY FOR THE INCREMENT:   4 TOTAL ITERATIONS, OF WHICH
   2 ARE SEVERE DISCONTINUITY ITERATIONS AND  2 ARE EQUILIBRIUM ITERATIONS.

 TIME INCREMENT COMPLETED  4.219E-06,  FRACTION OF STEP COMPLETED  5.141E-02
 STEP TIME COMPLETED       1.542E-04,  TOTAL TIME COMPLETED        1.542E-04
  
     ASYNCHRONOUS OUTPUT DATABASE FRAME FLUSH STARTED
  


  INCREMENT     9 STARTS. ATTEMPT NUMBER  1, TIME INCREMENT  6.328E-06
  
     ASYNCHRONOUS TRACKING ELEMENT LOOP STARTED
  

  NUMBER OF EQUATIONS =    13596     NUMBER OF FLOATING PT. OPERATIONS =  3.28E+07

  USING THE DIRECT SOLVER WITH  12 PROCESSORS

     CHECK POINT   START OF SOLVER    

     CHECK POINT  END OF SOLVER       

       ELAPSED USER TIME (SEC)      =  0.41000    
       ELAPSED SYSTEM TIME (SEC)    =  0.13000    
       ELAPSED TOTAL CPU TIME (SEC) =  0.54000    
       ELAPSED WALLCLOCK TIME (SEC) =          0
  
     ASYNCHRONOUS TRACKING ELEMENT LOOP STARTED
  

                    2 SEVERE DISCONTINUITIES OCCURRED DURING THIS ITERATION.
                    1 POINTS CHANGED FROM OPEN TO CLOSED
                    1 POINTS CHANGED FROM STICKING TO SLIPPING

               CONVERGENCE CHECKS FOR SEVERE DISCONTINUITY ITERATION     1

   MAX. PENETRATION ERROR 21.3943E-03  AT NODE CAP-1.69 OF CONTACT PAIR 
   (ASSEMBLY_CAP-1_TRANSITION-AND-PUMP-CONTACT,ASSEMBLY_TRANSITION-PIECE-1_END-C
   ONTACT)
   MAX. CONTACT FORCE ERROR 6.85881E+03 AT NODE CAP-1.69 OF CONTACT PAIR 
   (ASSEMBLY_CAP-1_TRANSITION-AND-PUMP-CONTACT,ASSEMBLY_TRANSITION-PIECE-1_END-C
   ONTACT)
[...]
   MAX. CONTACT FORCE ERROR 5.85184     AT NODE PISTON-1.1 OF CONTACT PAIR 
   (ASSEMBLY_PISTON-1_PUMP-CONTACT,ASSEMBLY_TUBE-INNER)
          THE CONTACT CONSTRAINT ERRORS ARE WITHIN THE TOLERANCES.

 AVERAGE FORCE                       82.3       TIME AVG. FORCE        102.    
 LARGEST RESIDUAL FORCE             -1.70       AT NODE         11   DOF  2
   INSTANCE: PISTON-1                                                                        
 LARGEST INCREMENT OF DISP.        -7.922E-04   AT NODE       1509   DOF  2
   INSTANCE: PUMP-TUBE-1                                                                     
 LARGEST CORRECTION TO DISP.       -1.561E-03   AT NODE        225   DOF  2
   INSTANCE: CAP-1                                                                           
          FORCE     EQUILIBRIUM NOT ACHIEVED WITHIN TOLERANCE.

  NUMBER OF EQUATIONS =    13596     NUMBER OF FLOATING PT. OPERATIONS =  3.19E+07

  USING THE DIRECT SOLVER WITH  12 PROCESSORS

     CHECK POINT   START OF SOLVER    

     CHECK POINT  END OF SOLVER       

       ELAPSED USER TIME (SEC)      =  0.34000    
       ELAPSED SYSTEM TIME (SEC)    =  0.20000    
       ELAPSED TOTAL CPU TIME (SEC) =  0.54000    
       ELAPSED WALLCLOCK TIME (SEC) =          0
  
     ASYNCHRONOUS TRACKING ELEMENT LOOP STARTED
  

               CONVERGENCE CHECKS FOR EQUILIBRIUM ITERATION     1

   MAX. PENETRATION ERROR 81.4661E-12  AT NODE CAP-1.32 OF CONTACT PAIR 
   (ASSEMBLY_CAP-1_TRANSITION-AND-PUMP-CONTACT,ASSEMBLY_PUMP-TUBE-1_PISTON-CONTA
   CT)
   MAX. CONTACT FORCE ERROR 59.7219E-06  AT NODE CAP-1.32 OF CONTACT PAIR 
   (ASSEMBLY_CAP-1_TRANSITION-AND-PUMP-CONTACT,ASSEMBLY_PUMP-TUBE-1_PISTON-CONTA
   CT)
          THE CONTACT CONSTRAINTS HAVE CONVERGED.

 AVERAGE FORCE                       82.3       TIME AVG. FORCE        102.    
 LARGEST RESIDUAL FORCE             1.336E-03   AT NODE          1   DOF  2
   INSTANCE: PISTON-1                                                                        
 LARGEST INCREMENT OF DISP.        -7.921E-04   AT NODE       1509   DOF  2
   INSTANCE: PUMP-TUBE-1                                                                     
 LARGEST CORRECTION TO DISP.       -1.143E-05   AT NODE         22   DOF  2
   INSTANCE: CAP-1                                                                           
 ESTIMATE OF DISP.    CORRECTION   -2.610E-09
 FORCE     EQUILIB. ACCEPTED BASED ON SMALL RESIDUAL AND ESTIMATED CORRECTION
          TIME INCREMENT MAY NOW INCREASE TO    3.797E-05
          TIME INCREMENT REDUCED TO   3.000E-05 TO MEET NEXT OUTPUT TIME POINT

 ITERATION SUMMARY FOR THE INCREMENT:   2 TOTAL ITERATIONS, OF WHICH
   1 ARE SEVERE DISCONTINUITY ITERATIONS AND  1 ARE EQUILIBRIUM ITERATIONS.

 TIME INCREMENT COMPLETED  3.000E-05,  FRACTION OF STEP COMPLETED  0.960    
 STEP TIME COMPLETED       2.880E-03,  TOTAL TIME COMPLETED        2.880E-03
  
     ASYNCHRONOUS OUTPUT DATABASE FRAME FLUSH STARTED
  


  INCREMENT   126 STARTS. ATTEMPT NUMBER  1, TIME INCREMENT  3.000E-05
  
     ASYNCHRONOUS TRACKING ELEMENT LOOP STARTED
  

  NUMBER OF EQUATIONS =    13596     NUMBER OF FLOATING PT. OPERATIONS =  3.19E+07

  USING THE DIRECT SOLVER WITH  12 PROCESSORS

     CHECK POINT   START OF SOLVER    

     CHECK POINT  END OF SOLVER       

       ELAPSED USER TIME (SEC)      =  0.45000    
       ELAPSED SYSTEM TIME (SEC)    =  0.13000    
       ELAPSED TOTAL CPU TIME (SEC) =  0.58000    
       ELAPSED WALLCLOCK TIME (SEC) =          0
  
     ASYNCHRONOUS TRACKING ELEMENT LOOP STARTED
  

                    2 SEVERE DISCONTINUITIES OCCURRED DURING THIS ITERATION.
                    2 POINTS CHANGED FROM CLOSED TO OPEN

               CONVERGENCE CHECKS FOR SEVERE DISCONTINUITY ITERATION     1

   MAX. PENETRATION ERROR 34.5093E-09  AT NODE CAP-1.32 OF CONTACT PAIR 
   (ASSEMBLY_CAP-1_TRANSITION-AND-PUMP-CONTACT,ASSEMBLY_PUMP-TUBE-1_PISTON-CONTA
   CT)
   MAX. CONTACT FORCE ERROR -7.55881     AT NODE PISTON-1.1 OF CONTACT PAIR 
   (ASSEMBLY_PISTON-1_PUMP-CONTACT,ASSEMBLY_TUBE-INNER)
          THE CONTACT CONSTRAINT ERRORS ARE WITHIN THE TOLERANCES.

 AVERAGE FORCE                       78.8       TIME AVG. FORCE        101.    
 LARGEST RESIDUAL FORCE             -4.92       AT NODE          1   DOF  1
   INSTANCE: PISTON-1                                                                        
 LARGEST INCREMENT OF DISP.        -1.589E-03   AT NODE        225   DOF  2
   INSTANCE: CAP-1                                                                           
 LARGEST CORRECTION TO DISP.       -1.695E-03   AT NODE         43   DOF  2
   INSTANCE: CAP-1                                                                           
          FORCE     EQUILIBRIUM NOT ACHIEVED WITHIN TOLERANCE.

  NUMBER OF EQUATIONS =    13596     NUMBER OF FLOATING PT. OPERATIONS =  3.18E+07

  USING THE DIRECT SOLVER WITH  12 PROCESSORS

     CHECK POINT   START OF SOLVER    

     CHECK POINT  END OF SOLVER       

       ELAPSED USER TIME (SEC)      =  0.41000    
       ELAPSED SYSTEM TIME (SEC)    =  0.13000    
       ELAPSED TOTAL CPU TIME (SEC) =  0.54000    
       ELAPSED WALLCLOCK TIME (SEC) =          0
  
     ASYNCHRONOUS TRACKING ELEMENT LOOP STARTED
  

               CONVERGENCE CHECKS FOR EQUILIBRIUM ITERATION     1

   MAX. PENETRATION ERROR 297.391E-12   AT NODE CAP-1.32 OF CONTACT PAIR 
   (ASSEMBLY_CAP-1_TRANSITION-AND-PUMP-CONTACT,ASSEMBLY_PUMP-TUBE-1_PISTON-CONTA
   CT)
   MAX. CONTACT FORCE ERROR 218.017E-06   AT NODE CAP-1.32 OF CONTACT PAIR 
   (ASSEMBLY_CAP-1_TRANSITION-AND-PUMP-CONTACT,ASSEMBLY_PUMP-TUBE-1_PISTON-CONTA
   CT)
          THE CONTACT CONSTRAINTS HAVE CONVERGED.

 AVERAGE FORCE                       78.7       TIME AVG. FORCE        101.    
 LARGEST RESIDUAL FORCE            -3.494E-03   AT NODE        408   DOF  2
   INSTANCE: PISTON-1                                                                        
 LARGEST INCREMENT OF DISP.        -1.597E-03   AT NODE        225   DOF  2
   INSTANCE: CAP-1                                                                           
 LARGEST CORRECTION TO DISP.       -2.984E-05   AT NODE         28   DOF  1
   INSTANCE: CAP-1                                                                           
 ESTIMATE OF DISP.    CORRECTION   -1.379E-08
 FORCE     EQUILIB. ACCEPTED BASED ON SMALL RESIDUAL AND ESTIMATED CORRECTION
          TIME INCREMENT MAY NOW INCREASE TO    3.797E-05
          TIME INCREMENT REDUCED TO   3.000E-05 TO MEET NEXT OUTPUT TIME POINT

 ITERATION SUMMARY FOR THE INCREMENT:   2 TOTAL ITERATIONS, OF WHICH
   1 ARE SEVERE DISCONTINUITY ITERATIONS AND  1 ARE EQUILIBRIUM ITERATIONS.

 TIME INCREMENT COMPLETED  3.000E-05,  FRACTION OF STEP COMPLETED  0.970    
 STEP TIME COMPLETED       2.910E-03,  TOTAL TIME COMPLETED        2.910E-03
  
     ASYNCHRONOUS OUTPUT DATABASE FRAME FLUSH STARTED
  


  INCREMENT   127 STARTS. ATTEMPT NUMBER  1, TIME INCREMENT  3.000E-05
  
     ASYNCHRONOUS TRACKING ELEMENT LOOP STARTED
  

  NUMBER OF EQUATIONS =    13596     NUMBER OF FLOATING PT. OPERATIONS =  3.18E+07

  USING THE DIRECT SOLVER WITH  12 PROCESSORS

     CHECK POINT   START OF SOLVER    

     CHECK POINT  END OF SOLVER       

       ELAPSED USER TIME (SEC)      =  0.36000    
       ELAPSED SYSTEM TIME (SEC)    =  0.20000    
       ELAPSED TOTAL CPU TIME (SEC) =  0.56000    
       ELAPSED WALLCLOCK TIME (SEC) =          0
  
     ASYNCHRONOUS TRACKING ELEMENT LOOP STARTED
  

                    1 SEVERE DISCONTINUITIES OCCURRED DURING THIS ITERATION.
                    1 POINTS CHANGED FROM CLOSED TO OPEN

               CONVERGENCE CHECKS FOR SEVERE DISCONTINUITY ITERATION     1

   MAX. PENETRATION ERROR 17.8521E-09  AT NODE CAP-1.32 OF CONTACT PAIR 
   (ASSEMBLY_CAP-1_TRANSITION-AND-PUMP-CONTACT,ASSEMBLY_PUMP-TUBE-1_PISTON-CONTA
   CT)
   MAX. CONTACT FORCE ERROR -1.20590     AT NODE PISTON-1.278 OF CONTACT PAIR 
   (ASSEMBLY_PISTON-1_PUMP-CONTACT,ASSEMBLY_TUBE-INNER)
          THE CONTACT CONSTRAINT ERRORS ARE WITHIN THE TOLERANCES.

 AVERAGE FORCE                       67.7       TIME AVG. FORCE        101.    
 LARGEST RESIDUAL FORCE             -1.98       AT NODE        408   DOF  2
   INSTANCE: PISTON-1                                                                        
 LARGEST INCREMENT OF DISP.        -2.500E-03   AT NODE        225   DOF  2
   INSTANCE: CAP-1                                                                           
 LARGEST CORRECTION TO DISP.        9.837E-04   AT NODE         79   DOF  2
   INSTANCE: PUMP-TUBE-1                                                                     
          FORCE     EQUILIBRIUM NOT ACHIEVED WITHIN TOLERANCE.

  NUMBER OF EQUATIONS =    13596     NUMBER OF FLOATING PT. OPERATIONS =  3.17E+07

  USING THE DIRECT SOLVER WITH  12 PROCESSORS

     CHECK POINT   START OF SOLVER    

     CHECK POINT  END OF SOLVER       

       ELAPSED USER TIME (SEC)      =  0.40000    
       ELAPSED SYSTEM TIME (SEC)    =  0.14000    
       ELAPSED TOTAL CPU TIME (SEC) =  0.54000    
       ELAPSED WALLCLOCK TIME (SEC) =          0
  
     ASYNCHRONOUS TRACKING ELEMENT LOOP STARTED
  

               CONVERGENCE CHECKS FOR EQUILIBRIUM ITERATION     1

   MAX. PENETRATION ERROR 193.644E-12   AT NODE CAP-1.32 OF CONTACT PAIR 
   (ASSEMBLY_CAP-1_TRANSITION-AND-PUMP-CONTACT,ASSEMBLY_PUMP-TUBE-1_PISTON-CONTA
   CT)
   MAX. CONTACT FORCE ERROR 141.964E-06   AT NODE CAP-1.32 OF CONTACT PAIR 
   (ASSEMBLY_CAP-1_TRANSITION-AND-PUMP-CONTACT,ASSEMBLY_PUMP-TUBE-1_PISTON-CONTA
   CT)
          THE CONTACT CONSTRAINTS HAVE CONVERGED.

 AVERAGE FORCE                       67.4       TIME AVG. FORCE        101.    
 LARGEST RESIDUAL FORCE             1.297E-03   AT NODE          1   DOF  1
   INSTANCE: PISTON-1                                                                        
 LARGEST INCREMENT OF DISP.        -2.507E-03   AT NODE        225   DOF  2
   INSTANCE: CAP-1                                                                           
 LARGEST CORRECTION TO DISP.       -1.428E-05   AT NODE        408   DOF  2
   INSTANCE: PISTON-1                                                                        
          THE FORCE     EQUILIBRIUM EQUATIONS HAVE CONVERGED
          TIME INCREMENT MAY NOW INCREASE TO    3.797E-05
          TIME INCREMENT REDUCED TO   3.000E-05 TO MEET NEXT OUTPUT TIME POINT

 ITERATION SUMMARY FOR THE INCREMENT:   2 TOTAL ITERATIONS, OF WHICH
   1 ARE SEVERE DISCONTINUITY ITERATIONS AND  1 ARE EQUILIBRIUM ITERATIONS.

 TIME INCREMENT COMPLETED  3.000E-05,  FRACTION OF STEP COMPLETED  0.980    
 STEP TIME COMPLETED       2.940E-03,  TOTAL TIME COMPLETED        2.940E-03
  
     ASYNCHRONOUS OUTPUT DATABASE FRAME FLUSH STARTED
  


  INCREMENT   128 STARTS. ATTEMPT NUMBER  1, TIME INCREMENT  3.000E-05
  
     ASYNCHRONOUS TRACKING ELEMENT LOOP STARTED
  

                    1 SEVERE DISCONTINUITIES OCCURRED DURING INCREMENT ATTEMPT INITIALIZATION.
                    1 POINTS CHANGED TO SLIPPING WITH NEGATIVE CPRESS

  NUMBER OF EQUATIONS =    13596     NUMBER OF FLOATING PT. OPERATIONS =  3.20E+07

  USING THE DIRECT SOLVER WITH  12 PROCESSORS

     CHECK POINT   START OF SOLVER    

     CHECK POINT  END OF SOLVER       

       ELAPSED USER TIME (SEC)      =  0.40000    
       ELAPSED SYSTEM TIME (SEC)    =  0.13000    
       ELAPSED TOTAL CPU TIME (SEC) =  0.53000    
       ELAPSED WALLCLOCK TIME (SEC) =          0
  
     ASYNCHRONOUS TRACKING ELEMENT LOOP STARTED
  

                    1 SEVERE DISCONTINUITIES OCCURRED DURING THIS ITERATION.
                    1 POINTS CHANGED FROM CLOSED TO OPEN

               CONVERGENCE CHECKS FOR SEVERE DISCONTINUITY ITERATION     1

   MAX. PENETRATION ERROR -2.43856E-09 AT NODE CAP-1.32 OF CONTACT PAIR 
   (ASSEMBLY_CAP-1_TRANSITION-AND-PUMP-CONTACT,ASSEMBLY_PUMP-TUBE-1_PISTON-CONTA
   CT)
   MAX. CONTACT FORCE ERROR -70.8699      AT NODE PISTON-1.408 OF CONTACT PAIR 
   (ASSEMBLY_PISTON-1_PUMP-CONTACT,ASSEMBLY_TUBE-INNER)
          THE CONTACT CONSTRAINT ERRORS ARE WITHIN THE TOLERANCES.

 AVERAGE FORCE                       55.5       TIME AVG. FORCE        101.    
 LARGEST RESIDUAL FORCE             -47.2       AT NODE        408   DOF  1
   INSTANCE: PISTON-1                                                                        
 LARGEST INCREMENT OF DISP.        -2.376E-03   AT NODE        225   DOF  2
   INSTANCE: CAP-1                                                                           
 LARGEST CORRECTION TO DISP.        6.870E-04   AT NODE       2139   DOF  2
   INSTANCE: PUMP-TUBE-1                                                                     
          FORCE     EQUILIBRIUM NOT ACHIEVED WITHIN TOLERANCE.

  NUMBER OF EQUATIONS =    13596     NUMBER OF FLOATING PT. OPERATIONS =  3.20E+07

  USING THE DIRECT SOLVER WITH  12 PROCESSORS

     CHECK POINT   START OF SOLVER    

     CHECK POINT  END OF SOLVER       

       ELAPSED USER TIME (SEC)      =  0.35000    
       ELAPSED SYSTEM TIME (SEC)    =  0.19000    
       ELAPSED TOTAL CPU TIME (SEC) =  0.54000    
       ELAPSED WALLCLOCK TIME (SEC) =          0
  
     ASYNCHRONOUS TRACKING ELEMENT LOOP STARTED
  

               CONVERGENCE CHECKS FOR EQUILIBRIUM ITERATION     1

   MAX. PENETRATION ERROR 32.8709E-12  AT NODE CAP-1.32 OF CONTACT PAIR 
   (ASSEMBLY_CAP-1_TRANSITION-AND-PUMP-CONTACT,ASSEMBLY_PUMP-TUBE-1_PISTON-CONTA
   CT)
   MAX. CONTACT FORCE ERROR 24.0988E-06  AT NODE CAP-1.32 OF CONTACT PAIR 
   (ASSEMBLY_CAP-1_TRANSITION-AND-PUMP-CONTACT,ASSEMBLY_PUMP-TUBE-1_PISTON-CONTA
   CT)
          THE CONTACT CONSTRAINTS HAVE CONVERGED.

 AVERAGE FORCE                       55.6       TIME AVG. FORCE        101.    
 LARGEST RESIDUAL FORCE            -5.192E-03   AT NODE         11   DOF  2
   INSTANCE: PISTON-1                                                                        
 LARGEST INCREMENT OF DISP.        -2.377E-03   AT NODE        225   DOF  2
   INSTANCE: CAP-1                                                                           
 LARGEST CORRECTION TO DISP.       -1.142E-05   AT NODE        408   DOF  1
   INSTANCE: PISTON-1                                                                        
          THE FORCE     EQUILIBRIUM EQUATIONS HAVE CONVERGED
          TIME INCREMENT MAY NOW INCREASE TO    3.797E-05

 ITERATION SUMMARY FOR THE INCREMENT:   2 TOTAL ITERATIONS, OF WHICH
   1 ARE SEVERE DISCONTINUITY ITERATIONS AND  1 ARE EQUILIBRIUM ITERATIONS.

 TIME INCREMENT COMPLETED  3.000E-05,  FRACTION OF STEP COMPLETED  0.990    
 STEP TIME COMPLETED       2.970E-03,  TOTAL TIME COMPLETED        2.970E-03
  
     ASYNCHRONOUS OUTPUT DATABASE FRAME FLUSH STARTED
  


  INCREMENT   129 STARTS. ATTEMPT NUMBER  1, TIME INCREMENT  3.000E-05
  
     ASYNCHRONOUS TRACKING ELEMENT LOOP STARTED
  

                    4 SEVERE DISCONTINUITIES OCCURRED DURING INCREMENT ATTEMPT INITIALIZATION.
                    4 POINTS CHANGED TO SLIPPING WITH NEGATIVE CPRESS

  NUMBER OF EQUATIONS =    13596     NUMBER OF FLOATING PT. OPERATIONS =  3.20E+07

  USING THE DIRECT SOLVER WITH  12 PROCESSORS

     CHECK POINT   START OF SOLVER    

     CHECK POINT  END OF SOLVER       

       ELAPSED USER TIME (SEC)      =  0.41000    
       ELAPSED SYSTEM TIME (SEC)    =  0.15000    
       ELAPSED TOTAL CPU TIME (SEC) =  0.56000    
       ELAPSED WALLCLOCK TIME (SEC) =          0
  
     ASYNCHRONOUS TRACKING ELEMENT LOOP STARTED
  

                    4 SEVERE DISCONTINUITIES OCCURRED DURING THIS ITERATION.
                    4 POINTS CHANGED FROM CLOSED TO OPEN

               CONVERGENCE CHECKS FOR SEVERE DISCONTINUITY ITERATION     1

   MAX. PENETRATION ERROR -15.8416E-09  AT NODE CAP-1.32 OF CONTACT PAIR 
   (ASSEMBLY_CAP-1_TRANSITION-AND-PUMP-CONTACT,ASSEMBLY_PUMP-TUBE-1_PISTON-CONTA
   CT)
   MAX. CONTACT FORCE ERROR -58.3192      AT NODE PISTON-1.11 OF CONTACT PAIR 
   (ASSEMBLY_PISTON-1_PUMP-CONTACT,ASSEMBLY_TUBE-INNER)
          THE CONTACT CONSTRAINT ERRORS ARE WITHIN THE TOLERANCES.

 AVERAGE FORCE                       71.2       TIME AVG. FORCE        100.    
 LARGEST RESIDUAL FORCE             -38.9       AT NODE         11   DOF  1
   INSTANCE: PISTON-1                                                                        
 LARGEST INCREMENT OF DISP.        -1.698E-03   AT NODE        225   DOF  2
   INSTANCE: CAP-1                                                                           
 LARGEST CORRECTION TO DISP.        6.789E-04   AT NODE        225   DOF  2
   INSTANCE: CAP-1                                                                           
          FORCE     EQUILIBRIUM NOT ACHIEVED WITHIN TOLERANCE.

  NUMBER OF EQUATIONS =    13596     NUMBER OF FLOATING PT. OPERATIONS =  3.19E+07

  USING THE DIRECT SOLVER WITH  12 PROCESSORS

     CHECK POINT   START OF SOLVER    

     CHECK POINT  END OF SOLVER       

       ELAPSED USER TIME (SEC)      =  0.45000    
       ELAPSED SYSTEM TIME (SEC)    =  0.10000    
       ELAPSED TOTAL CPU TIME (SEC) =  0.55000    
       ELAPSED WALLCLOCK TIME (SEC) =          0
  
     ASYNCHRONOUS TRACKING ELEMENT LOOP STARTED
  

               CONVERGENCE CHECKS FOR EQUILIBRIUM ITERATION     1

   MAX. PENETRATION ERROR -744.497E-12   AT NODE CAP-1.32 OF CONTACT PAIR 
   (ASSEMBLY_CAP-1_TRANSITION-AND-PUMP-CONTACT,ASSEMBLY_PUMP-TUBE-1_PISTON-CONTA
   CT)
   MAX. CONTACT FORCE ERROR -545.827E-06   AT NODE CAP-1.32 OF CONTACT PAIR 
   (ASSEMBLY_CAP-1_TRANSITION-AND-PUMP-CONTACT,ASSEMBLY_PUMP-TUBE-1_PISTON-CONTA
   CT)
          THE CONTACT CONSTRAINTS HAVE CONVERGED.

 AVERAGE FORCE                       71.2       TIME AVG. FORCE        100.    
 LARGEST RESIDUAL FORCE            -6.556E-03   AT NODE        546   DOF  2
   INSTANCE: PISTON-1                                                                        
 LARGEST INCREMENT OF DISP.        -1.683E-03   AT NODE          8   DOF  2
   INSTANCE: PISTON-1                                                                        
 LARGEST CORRECTION TO DISP.       -1.553E-04   AT NODE        169   DOF  1
   INSTANCE: CAP-1                                                                           
 ESTIMATE OF DISP.    CORRECTION   -1.746E-08
 FORCE     EQUILIB. ACCEPTED BASED ON SMALL RESIDUAL AND ESTIMATED CORRECTION
          TIME INCREMENT MAY NOW INCREASE TO    3.797E-05

 ITERATION SUMMARY FOR THE INCREMENT:   2 TOTAL ITERATIONS, OF WHICH
   1 ARE SEVERE DISCONTINUITY ITERATIONS AND  1 ARE EQUILIBRIUM ITERATIONS.

 TIME INCREMENT COMPLETED  3.000E-05,  FRACTION OF STEP COMPLETED   1.00    
 STEP TIME COMPLETED       3.000E-03,  TOTAL TIME COMPLETED        3.000E-03


          THE ANALYSIS HAS BEEN COMPLETED



     ANALYSIS SUMMARY:
     TOTAL OF        129  INCREMENTS
                       8  CUTBACKS IN AUTOMATIC INCREMENTATION
                     424  ITERATIONS INCLUDING CONTACT ITERATIONS IF PRESENT
                     424  PASSES THROUGH THE EQUATION SOLVER OF WHICH 
                     424  INVOLVE MATRIX DECOMPOSITION, INCLUDING
                       0  DECOMPOSITION(S) OF THE MASS MATRIX
                       1  REORDERING OF EQUATIONS TO MINIMIZE WAVEFRONT
                       0  ADDITIONAL RESIDUAL EVALUATIONS FOR LINE SEARCHES
                       0  ADDITIONAL OPERATOR EVALUATIONS FOR LINE SEARCHES
                      33  WARNING MESSAGES DURING USER INPUT PROCESSING
                      27  WARNING MESSAGES DURING ANALYSIS
                       0  ANALYSIS WARNINGS ARE NUMERICAL PROBLEM MESSAGES
                      11  ANALYSIS WARNINGS ARE NEGATIVE EIGENVALUE MESSAGES
                       0  ERROR MESSAGES



     JOB TIME SUMMARY
       USER TIME (SEC)      =   292.76    
       SYSTEM TIME (SEC)    =   108.46    
       TOTAL CPU TIME (SEC) =   401.22    
       WALLCLOCK TIME (SEC) =         75
