1

   Abaqus 6.14-1                                  Date 04-Oct-2021   Time 12:34:52
   For use at UNIVERSITY OF CAPE TOWN under license from Dassault Systemes or its subsidiary.

                                                                                 
                                                                                 
 STEP    1     INCREMENT     1     STEP TIME    0.00    


                        S T E P       1     S T A T I C   A N A L Y S I S


                                                                                          

     AUTOMATIC TIME CONTROL WITH -
          A SUGGESTED INITIAL TIME INCREMENT OF                1.000E-03
          AND A TOTAL TIME PERIOD OF                            1.00    
          THE MINIMUM TIME INCREMENT ALLOWED IS                1.000E-10
          THE MAXIMUM TIME INCREMENT ALLOWED IS                1.000E-03

     LINEAR EQUATION SOLVER TYPE         DIRECT SPARSE

 CONVERGENCE TOLERANCE PARAMETERS FOR FORCE    
     CRITERION FOR RESIDUAL FORCE     FOR A NONLINEAR PROBLEM          5.000E-03
     CRITERION FOR DISP.    CORRECTION IN A NONLINEAR PROBLEM          1.000E-02
     INITIAL VALUE OF TIME AVERAGE FORCE                               1.000E-02
     AVERAGE FORCE     IS TIME AVERAGE FORCE    
     ALTERNATE CRIT. FOR RESIDUAL FORCE     FOR A NONLINEAR PROBLEM    2.000E-02
     CRITERION FOR ZERO FORCE     RELATIVE TO TIME AVRG. FORCE         1.000E-05
     CRITERION FOR RESIDUAL FORCE     WHEN THERE IS ZERO FLUX          1.000E-05
     CRITERION FOR DISP.    CORRECTION WHEN THERE IS ZERO FLUX         1.000E-03
     CRITERION FOR RESIDUAL FORCE     FOR A LINEAR INCREMENT           1.000E-08
     FIELD CONVERSION RATIO                                             1.00    
     CRITERION FOR ZERO FORCE     REL. TO TIME AVRG. MAX. FORCE        1.000E-05
     CRITERION FOR ZERO DISP.    RELATIVE TO CHARACTERISTIC LENGTH     1.000E-08

     VOLUMETRIC STRAIN COMPATIBILITY TOLERANCE FOR HYBRID SOLIDS       1.000E-05
     AXIAL STRAIN COMPATIBILITY TOLERANCE FOR HYBRID BEAMS             1.000E-05
     TRANS. SHEAR STRAIN COMPATIBILITY TOLERANCE FOR HYBRID BEAMS      1.000E-05
     SOFT CONTACT CONSTRAINT COMPATIBILITY TOLERANCE FOR P>P0          5.000E-03
     SOFT CONTACT CONSTRAINT COMPATIBILITY TOLERANCE FOR P=0.0         0.100    
     CONTACT FORCE ERROR TOLERANCE FOR CONVERT SDI=YES                 1.00    
     DISPLACEMENT COMPATIBILITY TOLERANCE FOR DCOUP ELEMENTS           1.000E-05
     ROTATION COMPATIBILITY TOLERANCE FOR DCOUP ELEMENTS               1.000E-05

 EQUILIBRIUM WILL BE CHECKED FOR SEVERE DISCONTINUITY ITERATIONS

 TIME INCREMENTATION CONTROL PARAMETERS:
     FIRST EQUILIBRIUM ITERATION FOR CONSECUTIVE DIVERGENCE CHECK              4
     EQUILIBRIUM ITERATION AT WHICH LOG. CONVERGENCE RATE CHECK BEGINS         8
     EQUILIBRIUM ITERATION AFTER WHICH ALTERNATE RESIDUAL IS USED              9
     MAXIMUM EQUILIBRIUM ITERATIONS ALLOWED                                   16
     EQUILIBRIUM ITERATION COUNT FOR CUT-BACK IN NEXT INCREMENT               10
     MAXIMUM EQUILIB. ITERS IN TWO INCREMENTS FOR TIME INCREMENT INCREASE      4
     MAXIMUM ITERATIONS FOR SEVERE DISCONTINUITIES                            50
     MAXIMUM CUT-BACKS ALLOWED IN AN INCREMENT                                 5
     MAXIMUM DISCON. ITERS IN TWO INCREMENTS FOR TIME INCREMENT INCREASE      50
     MAXIMUM CONTACT AUGMENTATIONS FOR *SURFACE BEHAVIOR,AUGMENTED LAGRANGE   50
     CUT-BACK FACTOR AFTER DIVERGENCE                                 0.2500    
     CUT-BACK FACTOR FOR TOO SLOW CONVERGENCE                         0.5000    
     CUT-BACK FACTOR AFTER TOO MANY EQUILIBRIUM ITERATIONS            0.7500    
     CUT-BACK FACTOR AFTER TOO MANY SEVERE DISCONTINUITY ITERATIONS   0.2500    
     CUT-BACK FACTOR AFTER PROBLEMS IN ELEMENT ASSEMBLY               0.2500    
     INCREASE FACTOR AFTER TWO INCREMENTS THAT CONVERGE QUICKLY        1.500    
     MAX. TIME INCREMENT INCREASE FACTOR ALLOWED                       1.500    
     MAX. TIME INCREMENT INCREASE FACTOR ALLOWED (DYNAMICS)            1.250    
     MAX. TIME INCREMENT INCREASE FACTOR ALLOWED (DIFFUSION)           2.000    
     MINIMUM TIME INCREMENT RATIO FOR EXTRAPOLATION TO OCCUR          0.1000    
     MAX. RATIO OF TIME INCREMENT TO STABILITY LIMIT                   1.000    
     FRACTION OF STABILITY LIMIT FOR NEW TIME INCREMENT               0.9500    
     TIME INCREMENT INCREASE FACTOR BEFORE A TIME POINT                1.000    

 CONTACT CONTROLS APPLIED TO ALL CONTACT PAIRS:
     GLOBAL STABILIZATION CONTROL IS NOT USED
     RELATIVE PENETRATION TOLERANCE FOR AUGMENTED LAGRANGE CONTACT:
          FINITE-SLIDING SURFACE-TO-SURFACE                            5.000E-02
          OTHERWISE                                                    1.000E-03

          PRINT OF INCREMENT NUMBER, TIME, ETC., EVERY    1  INCREMENTS

     THE MAXIMUM NUMBER OF INCREMENTS IN THIS STEP IS                 *******

          LARGE DISPLACEMENT THEORY WILL BE USED

          UNSYMMETRIC MATRIX STORAGE AND SOLUTION WILL BE USED

     LINEAR EXTRAPOLATION WILL BE USED

     CHARACTERISTIC ELEMENT LENGTH      3.76    

     DETAILS REGARDING ACTUAL SOLUTION WAVEFRONT REQUESTED

     DETAILED OUTPUT OF DIAGNOSTICS TO DATABASE REQUESTED

     PRINT OF INCREMENT NUMBER, TIME, ETC., TO THE MESSAGE FILE EVERY     1  INCREMENTS

     ELEMENT OPERATIONS WILL BE CARRIED OUT IN PARALLEL USING  14 PROCESSORS

     PARALLEL CONTACT TRACKING ENABLED


     COLLECTING MODEL CONSTRAINT INFORMATION FOR OVERCONSTRAINT CHECKS

     COLLECTING STEP CONSTRAINT INFORMATION FOR OVERCONSTRAINT CHECKS
  
     ASYNCHRONOUS OUTPUT DATABASE FRAME FLUSH STARTED
  


  INCREMENT     1 STARTS. ATTEMPT NUMBER  1, TIME INCREMENT  1.000E-03
  
     ASYNCHRONOUS TRACKING ELEMENT LOOP STARTED
  
 
     INITIAL ELEMENT LOAD BALANCE
        COMPUTE NODE   1   PROCESS    NUMBER OF ELEMENTS
                              1            161
                              2            161
                              3            161
                              4            161
                              5            161
                              6            161
                              7            161
                              8            149
                              9            161
                             10            161
                             11            161
                             12            161
                             13            174
                             14            161

  NUMBER OF EQUATIONS =     9434     NUMBER OF FLOATING PT. OPERATIONS =  3.05E+07

  USING THE DIRECT SOLVER WITH  14 PROCESSORS

     CHECK POINT   START OF SOLVER    

     CHECK POINT  END OF SOLVER       

       ELAPSED USER TIME (SEC)      =  0.24000    
       ELAPSED SYSTEM TIME (SEC)    =  8.00000E-02
       ELAPSED TOTAL CPU TIME (SEC) =  0.32000    
       ELAPSED WALLCLOCK TIME (SEC) =          0
  
     ASYNCHRONOUS TRACKING ELEMENT LOOP STARTED
  

                   17 SEVERE DISCONTINUITIES OCCURRED DURING THIS ITERATION.
                   17 POINTS CHANGED FROM CLOSED TO OPEN

               CONVERGENCE CHECKS FOR SEVERE DISCONTINUITY ITERATION     1

   MAX. PENETRATION ERROR -59.2700E-12  AT NODE PISTON-1.1 OF CONTACT PAIR 
   (ASSEMBLY_PISTON-1_PUMP-CONTACT,ASSEMBLY_TUBE-INNER)
   MAX. CONTACT FORCE ERROR -4.45384     AT NODE PISTON-1.27 OF CONTACT PAIR 
   (ASSEMBLY_PISTON-1_PUMP-CONTACT,ASSEMBLY_TUBE-INNER)
          THE CONTACT CONSTRAINT ERRORS ARE WITHIN THE TOLERANCES.

 AVERAGE FORCE                       34.7       TIME AVG. FORCE        34.7    
 LARGEST RESIDUAL FORCE              354.       AT NODE        408   DOF  2
   INSTANCE: PISTON-1                                                                        
 LARGEST INCREMENT OF DISP.         3.929E-03   AT NODE          8   DOF  2
   INSTANCE: PISTON-1                                                                        
 LARGEST CORRECTION TO DISP.        3.929E-03   AT NODE          8   DOF  2
   INSTANCE: PISTON-1                                                                        
          FORCE     EQUILIBRIUM NOT ACHIEVED WITHIN TOLERANCE.

  NUMBER OF EQUATIONS =     9434     NUMBER OF FLOATING PT. OPERATIONS =  3.21E+07

  USING THE DIRECT SOLVER WITH  14 PROCESSORS

     CHECK POINT   START OF SOLVER    

     CHECK POINT  END OF SOLVER       

       ELAPSED USER TIME (SEC)      =  0.30000    
       ELAPSED SYSTEM TIME (SEC)    =  4.00000E-02
       ELAPSED TOTAL CPU TIME (SEC) =  0.34000    
       ELAPSED WALLCLOCK TIME (SEC) =          0
  
     ASYNCHRONOUS TRACKING ELEMENT LOOP STARTED
  

                   31 SEVERE DISCONTINUITIES OCCURRED DURING THIS ITERATION.
                   31 POINTS CHANGED FROM CLOSED TO OPEN

               CONVERGENCE CHECKS FOR SEVERE DISCONTINUITY ITERATION     2

   MAX. PENETRATION ERROR 27.6814E-09  AT NODE PISTON-1.1 OF CONTACT PAIR 
   (ASSEMBLY_PISTON-1_PUMP-CONTACT,ASSEMBLY_TUBE-INNER)
   MAX. CONTACT FORCE ERROR -1.86931     AT NODE PISTON-1.18 OF CONTACT PAIR 
   (ASSEMBLY_PISTON-1_PUMP-CONTACT,ASSEMBLY_TUBE-INNER)
          THE ESTIMATED CONTACT FORCE ERROR IS OUTSIDE OF CONVERGENCE TOLERANCES.

 AVERAGE FORCE                       1.25       TIME AVG. FORCE        1.25    
 LARGEST RESIDUAL FORCE              24.6       AT NODE        408   DOF  2
   INSTANCE: PISTON-1                                                                        
 LARGEST INCREMENT OF DISP.         3.929E-03   AT NODE          8   DOF  2
   INSTANCE: PISTON-1                                                                        
 LARGEST CORRECTION TO DISP.        3.561E-03   AT NODE        149   DOF  2
   INSTANCE: CAP-1                                                                           
          FORCE     EQUILIBRIUM NOT ACHIEVED WITHIN TOLERANCE.

  NUMBER OF EQUATIONS =     9434     NUMBER OF FLOATING PT. OPERATIONS =  2.98E+07

  USING THE DIRECT SOLVER WITH  14 PROCESSORS

     CHECK POINT   START OF SOLVER    

     CHECK POINT  END OF SOLVER       

       ELAPSED USER TIME (SEC)      =  0.39000    
       ELAPSED SYSTEM TIME (SEC)    =  6.00000E-02
       ELAPSED TOTAL CPU TIME (SEC) =  0.45000    
       ELAPSED WALLCLOCK TIME (SEC) =          0
  
     ASYNCHRONOUS TRACKING ELEMENT LOOP STARTED
  

                   41 SEVERE DISCONTINUITIES OCCURRED DURING THIS ITERATION.
                   41 POINTS CHANGED FROM OPEN TO CLOSED

               CONVERGENCE CHECKS FOR SEVERE DISCONTINUITY ITERATION     3

   MAX. PENETRATION ERROR 570.337E-09   AT NODE CAP-1.173 OF CONTACT PAIR 
   (ASSEMBLY_CAP-1_TRANSITION-AND-PUMP-CONTACT,ASSEMBLY_PUMP-TUBE-1_PISTON-CONTA
   CT)
   MAX. CONTACT FORCE ERROR 572.109E-03   AT NODE CAP-1.173 OF CONTACT PAIR 
   (ASSEMBLY_CAP-1_TRANSITION-AND-PUMP-CONTACT,ASSEMBLY_PUMP-TUBE-1_PISTON-CONTA
   CT)
          THE ESTIMATED CONTACT FORCE ERROR IS OUTSIDE OF CONVERGENCE TOLERANCES.

 AVERAGE FORCE                      6.694E-03   TIME AVG. FORCE       6.694E-03
 LARGEST RESIDUAL FORCE             6.246E-02   AT NODE       2815   DOF  1
   INSTANCE: PUMP-TUBE-1                                                                     
 LARGEST INCREMENT OF DISP.         3.941E-03   AT NODE         69   DOF  2
   INSTANCE: CAP-1                                                                           
 LARGEST CORRECTION TO DISP.        1.249E-04   AT NODE         69   DOF  2
   INSTANCE: CAP-1                                                                           
          FORCE     EQUILIBRIUM NOT ACHIEVED WITHIN TOLERANCE.

  NUMBER OF EQUATIONS =     9434     NUMBER OF FLOATING PT. OPERATIONS =  3.21E+07

  USING THE DIRECT SOLVER WITH  14 PROCESSORS

     CHECK POINT   START OF SOLVER    

     CHECK POINT  END OF SOLVER       

       ELAPSED USER TIME (SEC)      =  0.34000    
       ELAPSED SYSTEM TIME (SEC)    =  6.00000E-02
       ELAPSED TOTAL CPU TIME (SEC) =  0.40000    
       ELAPSED WALLCLOCK TIME (SEC) =          0
  
     ASYNCHRONOUS TRACKING ELEMENT LOOP STARTED
  

                    1 SEVERE DISCONTINUITIES OCCURRED DURING THIS ITERATION.
                    1 POINTS CHANGED FROM CLOSED TO OPEN

               CONVERGENCE CHECKS FOR SEVERE DISCONTINUITY ITERATION     4

   MAX. PENETRATION ERROR 3.86284E-15 AT NODE PISTON-1.483 OF CONTACT PAIR 
   (ASSEMBLY_PISTON-1_PUMP-CONTACT,ASSEMBLY_TUBE-INNER)
   MAX. CONTACT FORCE ERROR -41.1272E-03  AT NODE CAP-1.29 OF CONTACT PAIR 
   (ASSEMBLY_CAP-1_TRANSITION-AND-PUMP-CONTACT,ASSEMBLY_PUMP-TUBE-1_PISTON-CONTA
   CT)
          THE ESTIMATED CONTACT FORCE ERROR IS OUTSIDE OF CONVERGENCE TOLERANCES.

 AVERAGE FORCE                      6.423E-03   TIME AVG. FORCE       6.423E-03
 LARGEST RESIDUAL FORCE            -2.747E-02   AT NODE         29   DOF  1
   INSTANCE: CAP-1                                                                           
 LARGEST INCREMENT OF DISP.         3.942E-03   AT NODE         69   DOF  2
   INSTANCE: CAP-1                                                                           
 LARGEST CORRECTION TO DISP.        1.257E-06   AT NODE          6   DOF  2
   INSTANCE: CAP-1                                                                           
          FORCE     EQUILIBRIUM NOT ACHIEVED WITHIN TOLERANCE.

  NUMBER OF EQUATIONS =     9434     NUMBER OF FLOATING PT. OPERATIONS =  3.21E+07

  USING THE DIRECT SOLVER WITH  14 PROCESSORS

     CHECK POINT   START OF SOLVER    

     CHECK POINT  END OF SOLVER       

       ELAPSED USER TIME (SEC)      =  0.18000    
       ELAPSED SYSTEM TIME (SEC)    =  0.11000    
       ELAPSED TOTAL CPU TIME (SEC) =  0.29000    
       ELAPSED WALLCLOCK TIME (SEC) =          0
  
     ASYNCHRONOUS TRACKING ELEMENT LOOP STARTED
  

               CONVERGENCE CHECKS FOR EQUILIBRIUM ITERATION     1

   MAX. PENETRATION ERROR 4.04648E-15 AT NODE PISTON-1.13 OF CONTACT PAIR 
   (ASSEMBLY_PISTON-1_PUMP-CONTACT,ASSEMBLY_TUBE-INNER)
   MAX. CONTACT FORCE ERROR 28.6796E-09  AT NODE PISTON-1.13 OF CONTACT PAIR 
   (ASSEMBLY_PISTON-1_PUMP-CONTACT,ASSEMBLY_TUBE-INNER)
          THE CONTACT CONSTRAINTS HAVE CONVERGED.

 AVERAGE FORCE                      6.428E-03   TIME AVG. FORCE       6.428E-03
 LARGEST RESIDUAL FORCE             1.632E-05   AT NODE       2815   DOF  1
   INSTANCE: PUMP-TUBE-1                                                                     
 LARGEST INCREMENT OF DISP.         3.942E-03   AT NODE         69   DOF  2
   INSTANCE: CAP-1                                                                           
 LARGEST CORRECTION TO DISP.       -1.513E-07   AT NODE         29   DOF  1
   INSTANCE: CAP-1                                                                           
          THE FORCE     EQUILIBRIUM EQUATIONS HAVE CONVERGED

 ITERATION SUMMARY FOR THE INCREMENT:   5 TOTAL ITERATIONS, OF WHICH
   4 ARE SEVERE DISCONTINUITY ITERATIONS AND  1 ARE EQUILIBRIUM ITERATIONS.

 TIME INCREMENT COMPLETED  1.000E-03,  FRACTION OF STEP COMPLETED  1.000E-03
 STEP TIME COMPLETED       1.000E-03,  TOTAL TIME COMPLETED        1.000E-03
  
     ASYNCHRONOUS OUTPUT DATABASE FRAME FLUSH STARTED
  


  INCREMENT     2 STARTS. ATTEMPT NUMBER  1, TIME INCREMENT  1.000E-03
  
     ASYNCHRONOUS TRACKING ELEMENT LOOP STARTED
  

  NUMBER OF EQUATIONS =     9434     NUMBER OF FLOATING PT. OPERATIONS =  3.21E+07

  USING THE DIRECT SOLVER WITH  14 PROCESSORS

     CHECK POINT   START OF SOLVER    

     CHECK POINT  END OF SOLVER       

       ELAPSED USER TIME (SEC)      =  0.28000    
       ELAPSED SYSTEM TIME (SEC)    =  5.00000E-02
       ELAPSED TOTAL CPU TIME (SEC) =  0.33000    
       ELAPSED WALLCLOCK TIME (SEC) =          0
  
     ASYNCHRONOUS TRACKING ELEMENT LOOP STARTED
  

                    1 SEVERE DISCONTINUITIES OCCURRED DURING THIS ITERATION.
                    1 POINTS CHANGED FROM CLOSED TO OPEN

               CONVERGENCE CHECKS FOR SEVERE DISCONTINUITY ITERATION     1

   MAX. PENETRATION ERROR 38.5087E-12  AT NODE CAP-1.165 OF CONTACT PAIR 
   (ASSEMBLY_CAP-1_TRANSITION-AND-PUMP-CONTACT,ASSEMBLY_PUMP-TUBE-1_PISTON-CONTA
   CT)
   MAX. CONTACT FORCE ERROR -996.490E-06   AT NODE PISTON-1.278 OF CONTACT PAIR 
   (ASSEMBLY_PISTON-1_PUMP-CONTACT,ASSEMBLY_TUBE-INNER)
          THE CONTACT CONSTRAINT ERRORS ARE WITHIN THE TOLERANCES.

 AVERAGE FORCE                      4.781E-03   TIME AVG. FORCE       5.604E-03
 LARGEST RESIDUAL FORCE             0.364       AT NODE       2815   DOF  1
   INSTANCE: PUMP-TUBE-1                                                                     
 LARGEST INCREMENT OF DISP.         1.180E-02   AT NODE         45   DOF  2
   INSTANCE: CAP-1                                                                           
 LARGEST CORRECTION TO DISP.        7.876E-03   AT NODE         45   DOF  2
   INSTANCE: CAP-1                                                                           
          FORCE     EQUILIBRIUM NOT ACHIEVED WITHIN TOLERANCE.

  NUMBER OF EQUATIONS =     9434     NUMBER OF FLOATING PT. OPERATIONS =  3.21E+07

  USING THE DIRECT SOLVER WITH  14 PROCESSORS

     CHECK POINT   START OF SOLVER    

     CHECK POINT  END OF SOLVER       

       ELAPSED USER TIME (SEC)      =  0.23000    
       ELAPSED SYSTEM TIME (SEC)    =  8.00000E-02
       ELAPSED TOTAL CPU TIME (SEC) =  0.31000    
       ELAPSED WALLCLOCK TIME (SEC) =          0
  
     ASYNCHRONOUS TRACKING ELEMENT LOOP STARTED
  

                    1 SEVERE DISCONTINUITIES OCCURRED DURING THIS ITERATION.
                    1 POINTS CHANGED FROM OPEN TO CLOSED

               CONVERGENCE CHECKS FOR SEVERE DISCONTINUITY ITERATION     2

   MAX. PENETRATION ERROR 79.8950E-12  AT NODE PISTON-1.278 OF CONTACT PAIR 
   (ASSEMBLY_PISTON-1_PUMP-CONTACT,ASSEMBLY_TUBE-INNER)
   MAX. CONTACT FORCE ERROR 707.823E-06   AT NODE PISTON-1.278 OF CONTACT PAIR 
   (ASSEMBLY_PISTON-1_PUMP-CONTACT,ASSEMBLY_TUBE-INNER)
          THE CONTACT CONSTRAINT ERRORS ARE WITHIN THE TOLERANCES.

 AVERAGE FORCE                      4.645E-03   TIME AVG. FORCE       5.537E-03
 LARGEST RESIDUAL FORCE             1.720E-04   AT NODE       2815   DOF  1
   INSTANCE: PUMP-TUBE-1                                                                     
 LARGEST INCREMENT OF DISP.         1.180E-02   AT NODE         45   DOF  2
   INSTANCE: CAP-1                                                                           
 LARGEST CORRECTION TO DISP.       -5.064E-06   AT NODE          1   DOF  1
   INSTANCE: CAP-1                                                                           
          FORCE     EQUILIBRIUM NOT ACHIEVED WITHIN TOLERANCE.

  NUMBER OF EQUATIONS =     9434     NUMBER OF FLOATING PT. OPERATIONS =  3.21E+07

  USING THE DIRECT SOLVER WITH  14 PROCESSORS

     CHECK POINT   START OF SOLVER    

     CHECK POINT  END OF SOLVER       

       ELAPSED USER TIME (SEC)      =  0.23000    
       ELAPSED SYSTEM TIME (SEC)    =  0.10000    
       ELAPSED TOTAL CPU TIME (SEC) =  0.33000    
       ELAPSED WALLCLOCK TIME (SEC) =          0
  
     ASYNCHRONOUS TRACKING ELEMENT LOOP STARTED
  

               CONVERGENCE CHECKS FOR EQUILIBRIUM ITERATION     1

   MAX. PENETRATION ERROR -4.65081E-15 AT NODE CAP-1.24 OF CONTACT PAIR 
   (ASSEMBLY_CAP-1_TRANSITION-AND-PUMP-CONTACT,ASSEMBLY_PUMP-TUBE-1_PISTON-CONTA
   CT)
   MAX. CONTACT FORCE ERROR 20.4501E-09  AT NODE PISTON-1.408 OF CONTACT PAIR 
   (ASSEMBLY_PISTON-1_PUMP-CONTACT,ASSEMBLY_TUBE-INNER)
          THE CONTACT CONSTRAINTS HAVE CONVERGED.

 AVERAGE FORCE                      4.644E-03   TIME AVG. FORCE       5.536E-03
 LARGEST RESIDUAL FORCE             7.122E-08   AT NODE       2815   DOF  1
   INSTANCE: PUMP-TUBE-1                                                                     
 LARGEST INCREMENT OF DISP.         1.180E-02   AT NODE         45   DOF  2
   INSTANCE: CAP-1                                                                           
 LARGEST CORRECTION TO DISP.       -2.381E-09   AT NODE          1   DOF  1
   INSTANCE: CAP-1                                                                           
          THE FORCE     EQUILIBRIUM EQUATIONS HAVE CONVERGED

 ITERATION SUMMARY FOR THE INCREMENT:   3 TOTAL ITERATIONS, OF WHICH
   2 ARE SEVERE DISCONTINUITY ITERATIONS AND  1 ARE EQUILIBRIUM ITERATIONS.

 TIME INCREMENT COMPLETED  1.000E-03,  FRACTION OF STEP COMPLETED  2.000E-03
 STEP TIME COMPLETED       2.000E-03,  TOTAL TIME COMPLETED        2.000E-03
  
     ASYNCHRONOUS OUTPUT DATABASE FRAME FLUSH STARTED
  


  INCREMENT     3 STARTS. ATTEMPT NUMBER  1, TIME INCREMENT  1.000E-03
  
     ASYNCHRONOUS TRACKING ELEMENT LOOP STARTED
  

                   53 SEVERE DISCONTINUITIES OCCURRED DURING INCREMENT ATTEMPT INITIALIZATION.
                   31 POINTS CHANGED FROM STICKING TO SLIPPING
                   22 POINTS CHANGED TO SLIPPING WITH NEGATIVE CPRESS

  NUMBER OF EQUATIONS =     9434     NUMBER OF FLOATING PT. OPERATIONS =  3.21E+07

  USING THE DIRECT SOLVER WITH  14 PROCESSORS

     CHECK POINT   START OF SOLVER    

     CHECK POINT  END OF SOLVER       

       ELAPSED USER TIME (SEC)      =  0.27000    
       ELAPSED SYSTEM TIME (SEC)    =  0.10000    
       ELAPSED TOTAL CPU TIME (SEC) =  0.37000    
       ELAPSED WALLCLOCK TIME (SEC) =          0
  
     ASYNCHRONOUS TRACKING ELEMENT LOOP STARTED
  

               CONVERGENCE CHECKS FOR EQUILIBRIUM ITERATION     1

   MAX. PENETRATION ERROR -7.79508E-12 AT NODE CAP-1.165 OF CONTACT PAIR 
   (ASSEMBLY_CAP-1_TRANSITION-AND-PUMP-CONTACT,ASSEMBLY_PUMP-TUBE-1_PISTON-CONTA
   CT)
   MAX. CONTACT FORCE ERROR 10.6403E-06  AT NODE PISTON-1.408 OF CONTACT PAIR 
   (ASSEMBLY_PISTON-1_PUMP-CONTACT,ASSEMBLY_TUBE-INNER)
          THE CONTACT CONSTRAINTS HAVE CONVERGED.

 AVERAGE FORCE                      2.264E-04   TIME AVG. FORCE       3.766E-03
 LARGEST RESIDUAL FORCE             3.678E-02   AT NODE       2815   DOF  1
   INSTANCE: PUMP-TUBE-1                                                                     
 LARGEST INCREMENT OF DISP.         1.967E-02   AT NODE         45   DOF  2
   INSTANCE: CAP-1                                                                           
 LARGEST CORRECTION TO DISP.        7.878E-03   AT NODE         69   DOF  2
   INSTANCE: CAP-1                                                                           
          FORCE     EQUILIBRIUM NOT ACHIEVED WITHIN TOLERANCE.

  NUMBER OF EQUATIONS =     9434     NUMBER OF FLOATING PT. OPERATIONS =  3.21E+07

  USING THE DIRECT SOLVER WITH  14 PROCESSORS

     CHECK POINT   START OF SOLVER    

     CHECK POINT  END OF SOLVER       

       ELAPSED USER TIME (SEC)      =  0.19000    
       ELAPSED SYSTEM TIME (SEC)    =  0.13000    
       ELAPSED TOTAL CPU TIME (SEC) =  0.32000    
       ELAPSED WALLCLOCK TIME (SEC) =          0
  
     ASYNCHRONOUS TRACKING ELEMENT LOOP STARTED
  

               CONVERGENCE CHECKS FOR EQUILIBRIUM ITERATION     2

   MAX. PENETRATION ERROR -4.30230E-15 AT NODE PISTON-1.473 OF CONTACT PAIR 
   (ASSEMBLY_PISTON-1_PUMP-CONTACT,ASSEMBLY_TUBE-INNER)
   MAX. CONTACT FORCE ERROR -35.1098E-09  AT NODE PISTON-1.473 OF CONTACT PAIR 
   (ASSEMBLY_PISTON-1_PUMP-CONTACT,ASSEMBLY_TUBE-INNER)
          THE CONTACT CONSTRAINTS HAVE CONVERGED.

 AVERAGE FORCE                      4.783E-04   TIME AVG. FORCE       3.850E-03
 LARGEST RESIDUAL FORCE             1.491E-06   AT NODE       2815   DOF  1
   INSTANCE: PUMP-TUBE-1                                                                     
 LARGEST INCREMENT OF DISP.         1.967E-02   AT NODE         45   DOF  2
   INSTANCE: CAP-1                                                                           
 LARGEST CORRECTION TO DISP.       -5.098E-07   AT NODE          1   DOF  1
   INSTANCE: CAP-1                                                                           
          THE FORCE     EQUILIBRIUM EQUATIONS HAVE CONVERGED

 ITERATION SUMMARY FOR THE INCREMENT:   2 TOTAL ITERATIONS, OF WHICH
   0 ARE SEVERE DISCONTINUITY ITERATIONS AND  2 ARE EQUILIBRIUM ITERATIONS.

 TIME INCREMENT COMPLETED  1.000E-03,  FRACTION OF STEP COMPLETED  3.000E-03
 STEP TIME COMPLETED       3.000E-03,  TOTAL TIME COMPLETED        3.000E-03
  
     ASYNCHRONOUS OUTPUT DATABASE FRAME FLUSH STARTED
  


  INCREMENT     4 STARTS. ATTEMPT NUMBER  1, TIME INCREMENT  1.000E-03
  
     ASYNCHRONOUS TRACKING ELEMENT LOOP STARTED
  

  NUMBER OF EQUATIONS =     9434     NUMBER OF FLOATING PT. OPERATIONS =  3.21E+07

  USING THE DIRECT SOLVER WITH  14 PROCESSORS

     CHECK POINT   START OF SOLVER    

     CHECK POINT  END OF SOLVER       

       ELAPSED USER TIME (SEC)      =  0.26000    
       ELAPSED SYSTEM TIME (SEC)    =  6.00000E-02
       ELAPSED TOTAL CPU TIME (SEC) =  0.32000    
       ELAPSED WALLCLOCK TIME (SEC) =          0
  
     ASYNCHRONOUS TRACKING ELEMENT LOOP STARTED
  

               CONVERGENCE CHECKS FOR EQUILIBRIUM ITERATION     1

   MAX. PENETRATION ERROR -4.46323E-12 AT NODE CAP-1.165 OF CONTACT PAIR 
   (ASSEMBLY_CAP-1_TRANSITION-AND-PUMP-CONTACT,ASSEMBLY_PUMP-TUBE-1_PISTON-CONTA
   CT)
   MAX. CONTACT FORCE ERROR -11.0811E-06  AT NODE PISTON-1.278 OF CONTACT PAIR 
   (ASSEMBLY_PISTON-1_PUMP-CONTACT,ASSEMBLY_TUBE-INNER)
          THE CONTACT CONSTRAINTS HAVE CONVERGED.

 AVERAGE FORCE                      3.433E-05   TIME AVG. FORCE       2.896E-03
 LARGEST RESIDUAL FORCE             3.689E-03   AT NODE       2815   DOF  1
   INSTANCE: PUMP-TUBE-1                                                                     
 LARGEST INCREMENT OF DISP.         2.751E-02   AT NODE         45   DOF  2
   INSTANCE: CAP-1                                                                           
 LARGEST CORRECTION TO DISP.        7.844E-03   AT NODE         69   DOF  2
   INSTANCE: CAP-1                                                                           
          FORCE     EQUILIBRIUM NOT ACHIEVED WITHIN TOLERANCE.

  NUMBER OF EQUATIONS =     9434     NUMBER OF FLOATING PT. OPERATIONS =  3.21E+07

  USING THE DIRECT SOLVER WITH  14 PROCESSORS

     CHECK POINT   START OF SOLVER    

     CHECK POINT  END OF SOLVER       

       ELAPSED USER TIME (SEC)      =  0.28000    
       ELAPSED SYSTEM TIME (SEC)    =  8.00000E-02
       ELAPSED TOTAL CPU TIME (SEC) =  0.36000    
       ELAPSED WALLCLOCK TIME (SEC) =          0
  
     ASYNCHRONOUS TRACKING ELEMENT LOOP STARTED
  

               CONVERGENCE CHECKS FOR EQUILIBRIUM ITERATION     2

   MAX. PENETRATION ERROR 3.11930E-15 AT NODE PISTON-1.483 OF CONTACT PAIR 
   (ASSEMBLY_PISTON-1_PUMP-CONTACT,ASSEMBLY_TUBE-INNER)
   MAX. CONTACT FORCE ERROR 26.4672E-09  AT NODE PISTON-1.483 OF CONTACT PAIR 
   (ASSEMBLY_PISTON-1_PUMP-CONTACT,ASSEMBLY_TUBE-INNER)
          THE CONTACT CONSTRAINTS HAVE CONVERGED.

 AVERAGE FORCE                      6.652E-05   TIME AVG. FORCE       2.904E-03
 LARGEST RESIDUAL FORCE             1.443E-08   AT NODE       2815   DOF  1
   INSTANCE: PUMP-TUBE-1                                                                     
 LARGEST INCREMENT OF DISP.         2.751E-02   AT NODE         45   DOF  2
   INSTANCE: CAP-1                                                                           
 LARGEST CORRECTION TO DISP.       -5.069E-08   AT NODE          1   DOF  1
   INSTANCE: CAP-1                                                                           
          THE FORCE     EQUILIBRIUM EQUATIONS HAVE CONVERGED

 ITERATION SUMMARY FOR THE INCREMENT:   2 TOTAL ITERATIONS, OF WHICH
   0 ARE SEVERE DISCONTINUITY ITERATIONS AND  2 ARE EQUILIBRIUM ITERATIONS.

 TIME INCREMENT COMPLETED  1.000E-03,  FRACTION OF STEP COMPLETED  4.000E-03
 STEP TIME COMPLETED       4.000E-03,  TOTAL TIME COMPLETED        4.000E-03
  
     ASYNCHRONOUS OUTPUT DATABASE FRAME FLUSH STARTED
  


  INCREMENT     5 STARTS. ATTEMPT NUMBER  1, TIME INCREMENT  1.000E-03
  
     ASYNCHRONOUS TRACKING ELEMENT LOOP STARTED
  

  NUMBER OF EQUATIONS =     9434     NUMBER OF FLOATING PT. OPERATIONS =  3.21E+07

  USING THE DIRECT SOLVER WITH  14 PROCESSORS

     CHECK POINT   START OF SOLVER    

     CHECK POINT  END OF SOLVER       

       ELAPSED USER TIME (SEC)      =  0.25000    
       ELAPSED SYSTEM TIME (SEC)    =  6.00000E-02
       ELAPSED TOTAL CPU TIME (SEC) =  0.31000    
       ELAPSED WALLCLOCK TIME (SEC) =          0
  
     ASYNCHRONOUS TRACKING ELEMENT LOOP STARTED
  

               CONVERGENCE CHECKS FOR EQUILIBRIUM ITERATION     1

   MAX. PENETRATION ERROR -760.861E-15   AT NODE CAP-1.165 OF CONTACT PAIR 
   (ASSEMBLY_CAP-1_TRANSITION-AND-PUMP-CONTACT,ASSEMBLY_PUMP-TUBE-1_PISTON-CONTA
   CT)
   MAX. CONTACT FORCE ERROR -2.35159E-06 AT NODE PISTON-1.278 OF CONTACT PAIR 
   (ASSEMBLY_PISTON-1_PUMP-CONTACT,ASSEMBLY_TUBE-INNER)
          THE CONTACT CONSTRAINTS HAVE CONVERGED.

 AVERAGE FORCE                      4.780E-06   TIME AVG. FORCE       2.324E-03
 LARGEST RESIDUAL FORCE             3.709E-04   AT NODE       2815   DOF  1
   INSTANCE: PUMP-TUBE-1                                                                     
 LARGEST INCREMENT OF DISP.         3.529E-02   AT NODE         45   DOF  2
   INSTANCE: CAP-1                                                                           
 LARGEST CORRECTION TO DISP.        7.776E-03   AT NODE         69   DOF  2
   INSTANCE: CAP-1                                                                           
          FORCE     EQUILIBRIUM NOT ACHIEVED WITHIN TOLERANCE.

  NUMBER OF EQUATIONS =     9434     NUMBER OF FLOATING PT. OPERATIONS =  3.21E+07

  USING THE DIRECT SOLVER WITH  14 PROCESSORS

     CHECK POINT   START OF SOLVER    

     CHECK POINT  END OF SOLVER       

       ELAPSED USER TIME (SEC)      =  0.26000    
       ELAPSED SYSTEM TIME (SEC)    =  5.00000E-02
       ELAPSED TOTAL CPU TIME (SEC) =  0.31000    
       ELAPSED WALLCLOCK TIME (SEC) =          0
  
     ASYNCHRONOUS TRACKING ELEMENT LOOP STARTED
  

               CONVERGENCE CHECKS FOR EQUILIBRIUM ITERATION     2

   MAX. PENETRATION ERROR -4.01029E-15 AT NODE PISTON-1.23 OF CONTACT PAIR 
   (ASSEMBLY_PISTON-1_PUMP-CONTACT,ASSEMBLY_TUBE-INNER)
   MAX. CONTACT FORCE ERROR -32.7267E-09  AT NODE PISTON-1.23 OF CONTACT PAIR 
   (ASSEMBLY_PISTON-1_PUMP-CONTACT,ASSEMBLY_TUBE-INNER)
          THE CONTACT CONSTRAINTS HAVE CONVERGED.

 AVERAGE FORCE                      8.520E-06   TIME AVG. FORCE       2.325E-03
 LARGEST RESIDUAL FORCE             4.373E-10   AT NODE        135   DOF  2
   INSTANCE: PISTON-1                                                                        
 LARGEST INCREMENT OF DISP.         3.529E-02   AT NODE         45   DOF  2
   INSTANCE: CAP-1                                                                           
 LARGEST CORRECTION TO DISP.       -5.013E-09   AT NODE          1   DOF  1
   INSTANCE: CAP-1                                                                           
          THE FORCE     EQUILIBRIUM EQUATIONS HAVE CONVERGED

 ITERATION SUMMARY FOR THE INCREMENT:   2 TOTAL ITERATIONS, OF WHICH
   0 ARE SEVERE DISCONTINUITY ITERATIONS AND  2 ARE EQUILIBRIUM ITERATIONS.

 TIME INCREMENT COMPLETED  1.000E-03,  FRACTION OF STEP COMPLETED  5.000E-03
 STEP TIME COMPLETED       5.000E-03,  TOTAL TIME COMPLETED        5.000E-03
  
     ASYNCHRONOUS OUTPUT DATABASE FRAME FLUSH STARTED
  


  INCREMENT     6 STARTS. ATTEMPT NUMBER  1, TIME INCREMENT  1.000E-03
  
     ASYNCHRONOUS TRACKING ELEMENT LOOP STARTED
  

  NUMBER OF EQUATIONS =     9434     NUMBER OF FLOATING PT. OPERATIONS =  3.21E+07

  USING THE DIRECT SOLVER WITH  14 PROCESSORS

     CHECK POINT   START OF SOLVER    

     CHECK POINT  END OF SOLVER       

       ELAPSED USER TIME (SEC)      =  0.22000    
       ELAPSED SYSTEM TIME (SEC)    =  0.10000    
       ELAPSED TOTAL CPU TIME (SEC) =  0.32000    
       ELAPSED WALLCLOCK TIME (SEC) =          1
  
     ASYNCHRONOUS TRACKING ELEMENT LOOP STARTED
  

               CONVERGENCE CHECKS FOR EQUILIBRIUM ITERATION     1

   MAX. PENETRATION ERROR -107.016E-15   AT NODE CAP-1.165 OF CONTACT PAIR 
   (ASSEMBLY_CAP-1_TRANSITION-AND-PUMP-CONTACT,ASSEMBLY_PUMP-TUBE-1_PISTON-CONTA
   CT)
   MAX. CONTACT FORCE ERROR -348.868E-09   AT NODE PISTON-1.278 OF CONTACT PAIR 
   (ASSEMBLY_PISTON-1_PUMP-CONTACT,ASSEMBLY_TUBE-INNER)
          THE CONTACT CONSTRAINTS HAVE CONVERGED.

 AVERAGE FORCE                      6.112E-07   TIME AVG. FORCE       1.938E-03
 LARGEST RESIDUAL FORCE             3.731E-05   AT NODE       2815   DOF  1
   INSTANCE: PUMP-TUBE-1                                                                     
 LARGEST INCREMENT OF DISP.         4.296E-02   AT NODE         45   DOF  2
   INSTANCE: CAP-1                                                                           
 LARGEST CORRECTION TO DISP.        7.675E-03   AT NODE         69   DOF  2
   INSTANCE: CAP-1                                                                           
          FORCE     EQUILIBRIUM NOT ACHIEVED WITHIN TOLERANCE.

  NUMBER OF EQUATIONS =     9434     NUMBER OF FLOATING PT. OPERATIONS =  3.21E+07

  USING THE DIRECT SOLVER WITH  14 PROCESSORS

     CHECK POINT   START OF SOLVER    

     CHECK POINT  END OF SOLVER       

       ELAPSED USER TIME (SEC)      =  0.30000    
       ELAPSED SYSTEM TIME (SEC)    =  7.00000E-02
       ELAPSED TOTAL CPU TIME (SEC) =  0.37000    
       ELAPSED WALLCLOCK TIME (SEC) =          0
  
     ASYNCHRONOUS TRACKING ELEMENT LOOP STARTED
  

               CONVERGENCE CHECKS FOR EQUILIBRIUM ITERATION     2

   MAX. PENETRATION ERROR 5.24722E-15 AT NODE PISTON-1.25 OF CONTACT PAIR 
   (ASSEMBLY_PISTON-1_PUMP-CONTACT,ASSEMBLY_TUBE-INNER)
   MAX. CONTACT FORCE ERROR 38.1723E-09  AT NODE PISTON-1.25 OF CONTACT PAIR 
   (ASSEMBLY_PISTON-1_PUMP-CONTACT,ASSEMBLY_TUBE-INNER)
          THE CONTACT CONSTRAINTS HAVE CONVERGED.

 AVERAGE FORCE                      1.035E-06   TIME AVG. FORCE       1.938E-03
 LARGEST RESIDUAL FORCE             4.546E-10   AT NODE        661   DOF  2
   INSTANCE: PISTON-1                                                                        
 LARGEST INCREMENT OF DISP.         4.296E-02   AT NODE         45   DOF  2
   INSTANCE: CAP-1                                                                           
 LARGEST CORRECTION TO DISP.       -4.936E-10   AT NODE          1   DOF  1
   INSTANCE: CAP-1                                                                           
          THE FORCE     EQUILIBRIUM EQUATIONS HAVE CONVERGED

 ITERATION SUMMARY FOR THE INCREMENT:   2 TOTAL ITERATIONS, OF WHICH
   0 ARE SEVERE DISCONTINUITY ITERATIONS AND  2 ARE EQUILIBRIUM ITERATIONS.

 TIME INCREMENT COMPLETED  1.000E-03,  FRACTION OF STEP COMPLETED  6.000E-03
 STEP TIME COMPLETED       6.000E-03,  TOTAL TIME COMPLETED        6.000E-03
  
     ASYNCHRONOUS OUTPUT DATABASE FRAME FLUSH STARTED
  


  INCREMENT     7 STARTS. ATTEMPT NUMBER  1, TIME INCREMENT  1.000E-03
  
     ASYNCHRONOUS TRACKING ELEMENT LOOP STARTED
  

  NUMBER OF EQUATIONS =     9434     NUMBER OF FLOATING PT. OPERATIONS =  3.21E+07

  USING THE DIRECT SOLVER WITH  14 PROCESSORS

     CHECK POINT   START OF SOLVER    

     CHECK POINT  END OF SOLVER       

       ELAPSED USER TIME (SEC)      =  0.25000    
       ELAPSED SYSTEM TIME (SEC)    =  6.00000E-02
       ELAPSED TOTAL CPU TIME (SEC) =  0.31000    
       ELAPSED WALLCLOCK TIME (SEC) =          0
  
     ASYNCHRONOUS TRACKING ELEMENT LOOP STARTED
  

               CONVERGENCE CHECKS FOR EQUILIBRIUM ITERATION     1

   MAX. PENETRATION ERROR -12.0747E-15  AT NODE CAP-1.177 OF CONTACT PAIR 
   (ASSEMBLY_CAP-1_TRANSITION-AND-PUMP-CONTACT,ASSEMBLY_PUMP-TUBE-1_PISTON-CONTA
   CT)
   MAX. CONTACT FORCE ERROR -39.8928E-09  AT NODE PISTON-1.278 OF CONTACT PAIR 
   (ASSEMBLY_PISTON-1_PUMP-CONTACT,ASSEMBLY_TUBE-INNER)
          THE CONTACT CONSTRAINTS HAVE CONVERGED.

 AVERAGE FORCE                      7.389E-08   TIME AVG. FORCE       1.661E-03
 LARGEST RESIDUAL FORCE             3.727E-06   AT NODE       2815   DOF  1
   INSTANCE: PUMP-TUBE-1                                                                     
 LARGEST INCREMENT OF DISP.         5.050E-02   AT NODE         45   DOF  2
   INSTANCE: CAP-1                                                                           
 LARGEST CORRECTION TO DISP.        7.541E-03   AT NODE         69   DOF  2
   INSTANCE: CAP-1                                                                           
 ESTIMATE OF DISP.    CORRECTION    2.184E-05
 FORCE     EQUILIB. ACCEPTED BASED ON SMALL RESIDUAL AND ESTIMATED CORRECTION

 ITERATION SUMMARY FOR THE INCREMENT:   1 TOTAL ITERATIONS, OF WHICH
   0 ARE SEVERE DISCONTINUITY ITERATIONS AND  1 ARE EQUILIBRIUM ITERATIONS.

 TIME INCREMENT COMPLETED  1.000E-03,  FRACTION OF STEP COMPLETED  7.000E-03
 STEP TIME COMPLETED       7.000E-03,  TOTAL TIME COMPLETED        7.000E-03
  
     ASYNCHRONOUS OUTPUT DATABASE FRAME FLUSH STARTED
  


  INCREMENT     8 STARTS. ATTEMPT NUMBER  1, TIME INCREMENT  1.000E-03
  
     ASYNCHRONOUS TRACKING ELEMENT LOOP STARTED
  

  NUMBER OF EQUATIONS =     9434     NUMBER OF FLOATING PT. OPERATIONS =  3.20E+07

  USING THE DIRECT SOLVER WITH  14 PROCESSORS

     CHECK POINT   START OF SOLVER    

     CHECK POINT  END OF SOLVER       

       ELAPSED USER TIME (SEC)      =  0.29000    
       ELAPSED SYSTEM TIME (SEC)    =  5.00000E-02
       ELAPSED TOTAL CPU TIME (SEC) =  0.34000    
       ELAPSED WALLCLOCK TIME (SEC) =          0
  
     ASYNCHRONOUS TRACKING ELEMENT LOOP STARTED
  

                   13 SEVERE DISCONTINUITIES OCCURRED DURING THIS ITERATION.
                   13 POINTS CHANGED FROM CLOSED TO OPEN

               CONVERGENCE CHECKS FOR SEVERE DISCONTINUITY ITERATION     1

   MAX. PENETRATION ERROR 3.75526E-15 AT NODE PISTON-1.510 OF CONTACT PAIR 
   (ASSEMBLY_PISTON-1_PUMP-CONTACT,ASSEMBLY_TUBE-INNER)
   MAX. CONTACT FORCE ERROR -33.1394E-09  AT NODE PISTON-1.14 OF CONTACT PAIR 
   (ASSEMBLY_PISTON-1_PUMP-CONTACT,ASSEMBLY_TUBE-INNER)
          THE CONTACT CONSTRAINT ERRORS ARE WITHIN THE TOLERANCES.

 AVERAGE FORCE                      8.519E-09   TIME AVG. FORCE       1.661E-03
 LARGEST RESIDUAL FORCE             3.689E-07   AT NODE       2815   DOF  1
   INSTANCE: PUMP-TUBE-1                                                                     
 LARGEST INCREMENT OF DISP.         5.788E-02   AT NODE         45   DOF  2
   INSTANCE: CAP-1                                                                           
 LARGEST CORRECTION TO DISP.        7.372E-03   AT NODE         69   DOF  2
   INSTANCE: CAP-1                                                                           
          THE FORCE     IS ZERO EVERYWHERE BUT THE FORCE     RESIDUAL OR
          THE DISP.    CORRECTION IS NON-ZERO

  NUMBER OF EQUATIONS =     9434     NUMBER OF FLOATING PT. OPERATIONS =  3.19E+07

  USING THE DIRECT SOLVER WITH  14 PROCESSORS

     CHECK POINT   START OF SOLVER    

     CHECK POINT  END OF SOLVER       

       ELAPSED USER TIME (SEC)      =  0.22000    
       ELAPSED SYSTEM TIME (SEC)    =  7.00000E-02
       ELAPSED TOTAL CPU TIME (SEC) =  0.29000    
       ELAPSED WALLCLOCK TIME (SEC) =          0
  
     ASYNCHRONOUS TRACKING ELEMENT LOOP STARTED
  

                   16 SEVERE DISCONTINUITIES OCCURRED DURING THIS ITERATION.
                    8 POINTS CHANGED FROM OPEN TO CLOSED
                    8 POINTS CHANGED FROM STICKING TO SLIPPING

               CONVERGENCE CHECKS FOR SEVERE DISCONTINUITY ITERATION     2

   MAX. PENETRATION ERROR 4.25590E-15 AT NODE PISTON-1.11 OF CONTACT PAIR 
   (ASSEMBLY_PISTON-1_PUMP-CONTACT,ASSEMBLY_TUBE-INNER)
   MAX. CONTACT FORCE ERROR 36.9080E-09  AT NODE PISTON-1.11 OF CONTACT PAIR 
   (ASSEMBLY_PISTON-1_PUMP-CONTACT,ASSEMBLY_TUBE-INNER)
          THE CONTACT CONSTRAINT ERRORS ARE WITHIN THE TOLERANCES.

 AVERAGE FORCE                      1.302E-08   TIME AVG. FORCE       1.661E-03
 LARGEST RESIDUAL FORCE            -1.028E-09   AT NODE        314   DOF  2
   INSTANCE: PISTON-1                                                                        
 LARGEST INCREMENT OF DISP.         5.788E-02   AT NODE         45   DOF  2
   INSTANCE: CAP-1                                                                           
 LARGEST CORRECTION TO DISP.       -4.733E-12   AT NODE          1   DOF  1
   INSTANCE: CAP-1                                                                           
          THERE IS ZERO FORCE     EVERYWHERE

 ITERATION SUMMARY FOR THE INCREMENT:   2 TOTAL ITERATIONS, OF WHICH
   2 ARE SEVERE DISCONTINUITY ITERATIONS AND  0 ARE EQUILIBRIUM ITERATIONS.

 TIME INCREMENT COMPLETED  1.000E-03,  FRACTION OF STEP COMPLETED  8.000E-03
 STEP TIME COMPLETED       8.000E-03,  TOTAL TIME COMPLETED        8.000E-03
  
     ASYNCHRONOUS OUTPUT DATABASE FRAME FLUSH STARTED
  


  INCREMENT     9 STARTS. ATTEMPT NUMBER  1, TIME INCREMENT  1.000E-03
  
     ASYNCHRONOUS TRACKING ELEMENT LOOP STARTED
  

  NUMBER OF EQUATIONS =     9434     NUMBER OF FLOATING PT. OPERATIONS =  3.19E+07

  USING THE DIRECT SOLVER WITH  14 PROCESSORS

     CHECK POINT   START OF SOLVER    

     CHECK POINT  END OF SOLVER       

       ELAPSED USER TIME (SEC)      =  0.27000    
       ELAPSED SYSTEM TIME (SEC)    =  0.10000    
       ELAPSED TOTAL CPU TIME (SEC) =  0.37000    
       ELAPSED WALLCLOCK TIME (SEC) =          0
  
     ASYNCHRONOUS TRACKING ELEMENT LOOP STARTED
  

                   45 SEVERE DISCONTINUITIES OCCURRED DURING THIS ITERATION.
                    8 POINTS CHANGED FROM OPEN TO CLOSED
                   29 POINTS CHANGED FROM CLOSED TO OPEN
                    8 POINTS CHANGED FROM STICKING TO SLIPPING

               CONVERGENCE CHECKS FOR SEVERE DISCONTINUITY ITERATION     1

   MAX. PENETRATION ERROR 6.10220E-12 AT NODE CAP-1.32 OF CONTACT PAIR 
   (ASSEMBLY_CAP-1_TRANSITION-AND-PUMP-CONTACT,ASSEMBLY_PUMP-TUBE-1_PISTON-CONTA
   CT)
   MAX. CONTACT FORCE ERROR 6.12116E-06 AT NODE CAP-1.32 OF CONTACT PAIR 
   (ASSEMBLY_CAP-1_TRANSITION-AND-PUMP-CONTACT,ASSEMBLY_PUMP-TUBE-1_PISTON-CONTA
   CT)
          THE CONTACT CONSTRAINT ERRORS ARE WITHIN THE TOLERANCES.

 AVERAGE FORCE                      1.935E-09   TIME AVG. FORCE       1.661E-03
 LARGEST RESIDUAL FORCE             3.657E-08   AT NODE       2815   DOF  1
   INSTANCE: PUMP-TUBE-1                                                                     
 LARGEST INCREMENT OF DISP.         6.505E-02   AT NODE         45   DOF  2
   INSTANCE: CAP-1                                                                           
 LARGEST CORRECTION TO DISP.        7.171E-03   AT NODE         69   DOF  2
   INSTANCE: CAP-1                                                                           
          THE FORCE     IS ZERO EVERYWHERE BUT THE FORCE     RESIDUAL OR
          THE DISP.    CORRECTION IS NON-ZERO

  NUMBER OF EQUATIONS =     9434     NUMBER OF FLOATING PT. OPERATIONS =  3.50E+07

  USING THE DIRECT SOLVER WITH  14 PROCESSORS

     CHECK POINT   START OF SOLVER    

     CHECK POINT  END OF SOLVER       

       ELAPSED USER TIME (SEC)      =  0.25000    
       ELAPSED SYSTEM TIME (SEC)    =  6.00000E-02
       ELAPSED TOTAL CPU TIME (SEC) =  0.31000    
       ELAPSED WALLCLOCK TIME (SEC) =          0
  
     ASYNCHRONOUS TRACKING ELEMENT LOOP STARTED
  

                   62 SEVERE DISCONTINUITIES OCCURRED DURING THIS ITERATION.
                   30 POINTS CHANGED FROM OPEN TO CLOSED
                    2 POINTS CHANGED FROM CLOSED TO OPEN
                   30 POINTS CHANGED FROM STICKING TO SLIPPING

               CONVERGENCE CHECKS FOR SEVERE DISCONTINUITY ITERATION     2

   MAX. PENETRATION ERROR 838.804E-15   AT NODE CAP-1.177 OF CONTACT PAIR 
   (ASSEMBLY_CAP-1_TRANSITION-AND-PUMP-CONTACT,ASSEMBLY_PUMP-TUBE-1_PISTON-CONTA
   CT)
   MAX. CONTACT FORCE ERROR 841.410E-09   AT NODE CAP-1.177 OF CONTACT PAIR 
   (ASSEMBLY_CAP-1_TRANSITION-AND-PUMP-CONTACT,ASSEMBLY_PUMP-TUBE-1_PISTON-CONTA
   CT)
          THE CONTACT CONSTRAINT ERRORS ARE WITHIN THE TOLERANCES.

 AVERAGE FORCE                      1.046E-08   TIME AVG. FORCE       1.661E-03
 LARGEST RESIDUAL FORCE            -1.076E-07   AT NODE        153   DOF  1
   INSTANCE: CAP-1                                                                           
 LARGEST INCREMENT OF DISP.         6.505E-02   AT NODE        353   DOF  2
   INSTANCE: CAP-1                                                                           
 LARGEST CORRECTION TO DISP.       -8.193E-12   AT NODE         32   DOF  1
   INSTANCE: CAP-1                                                                           
          ALL DISP.    CORRECTIONS ARE ZERO

 ITERATION SUMMARY FOR THE INCREMENT:   2 TOTAL ITERATIONS, OF WHICH
   2 ARE SEVERE DISCONTINUITY ITERATIONS AND  0 ARE EQUILIBRIUM ITERATIONS.

 TIME INCREMENT COMPLETED  1.000E-03,  FRACTION OF STEP COMPLETED  9.000E-03
 STEP TIME COMPLETED       9.000E-03,  TOTAL TIME COMPLETED        9.000E-03
  
     ASYNCHRONOUS OUTPUT DATABASE FRAME FLUSH STARTED
  


  INCREMENT    10 STARTS. ATTEMPT NUMBER  1, TIME INCREMENT  1.000E-03
  
     ASYNCHRONOUS TRACKING ELEMENT LOOP STARTED
  

  NUMBER OF EQUATIONS =     9434     NUMBER OF FLOATING PT. OPERATIONS =  2.96E+07

  USING THE DIRECT SOLVER WITH  14 PROCESSORS

     CHECK POINT   START OF SOLVER    

     CHECK POINT  END OF SOLVER       

       ELAPSED USER TIME (SEC)      =  0.26000    
       ELAPSED SYSTEM TIME (SEC)    =  5.00000E-02
       ELAPSED TOTAL CPU TIME (SEC) =  0.31000    
       ELAPSED WALLCLOCK TIME (SEC) =          0
  
     ASYNCHRONOUS TRACKING ELEMENT LOOP STARTED
  

                   12 SEVERE DISCONTINUITIES OCCURRED DURING THIS ITERATION.
                    4 POINTS CHANGED FROM OPEN TO CLOSED
                    4 POINTS CHANGED FROM CLOSED TO OPEN
                    4 POINTS CHANGED FROM STICKING TO SLIPPING

               CONVERGENCE CHECKS FOR SEVERE DISCONTINUITY ITERATION     1

   MAX. PENETRATION ERROR 29.7850E-15  AT NODE CAP-1.157 OF CONTACT PAIR 
   (ASSEMBLY_CAP-1_TRANSITION-AND-PUMP-CONTACT,ASSEMBLY_PUMP-TUBE-1_PISTON-CONTA
   CT)
   MAX. CONTACT FORCE ERROR 40.3841E-09  AT NODE PISTON-1.22 OF CONTACT PAIR 
   (ASSEMBLY_PISTON-1_PUMP-CONTACT,ASSEMBLY_TUBE-INNER)
          THE CONTACT CONSTRAINT ERRORS ARE WITHIN THE TOLERANCES.

 AVERAGE FORCE                      1.030E-08   TIME AVG. FORCE       1.661E-03
 LARGEST RESIDUAL FORCE            -1.686E-08   AT NODE          1   DOF  2
   INSTANCE: PISTON-1                                                                        
 LARGEST INCREMENT OF DISP.         7.198E-02   AT NODE        225   DOF  2
   INSTANCE: CAP-1                                                                           
 LARGEST CORRECTION TO DISP.        6.937E-03   AT NODE         69   DOF  2
   INSTANCE: CAP-1                                                                           
          THE FORCE     IS ZERO EVERYWHERE BUT THE FORCE     RESIDUAL OR
          THE DISP.    CORRECTION IS NON-ZERO

  NUMBER OF EQUATIONS =     9434     NUMBER OF FLOATING PT. OPERATIONS =  2.96E+07

  USING THE DIRECT SOLVER WITH  14 PROCESSORS

     CHECK POINT   START OF SOLVER    

     CHECK POINT  END OF SOLVER       

       ELAPSED USER TIME (SEC)      =  0.25000    
       ELAPSED SYSTEM TIME (SEC)    =  8.00000E-02
       ELAPSED TOTAL CPU TIME (SEC) =  0.33000    
       ELAPSED WALLCLOCK TIME (SEC) =          0
  
     ASYNCHRONOUS TRACKING ELEMENT LOOP STARTED
  

                    7 SEVERE DISCONTINUITIES OCCURRED DURING THIS ITERATION.
                    2 POINTS CHANGED FROM OPEN TO CLOSED
                    3 POINTS CHANGED FROM CLOSED TO OPEN
                    2 POINTS CHANGED FROM STICKING TO SLIPPING

               CONVERGENCE CHECKS FOR SEVERE DISCONTINUITY ITERATION     2

   MAX. PENETRATION ERROR -5.23607E-15 AT NODE PISTON-1.22 OF CONTACT PAIR 
   (ASSEMBLY_PISTON-1_PUMP-CONTACT,ASSEMBLY_TUBE-INNER)
   MAX. CONTACT FORCE ERROR -44.4280E-09  AT NODE PISTON-1.22 OF CONTACT PAIR 
   (ASSEMBLY_PISTON-1_PUMP-CONTACT,ASSEMBLY_TUBE-INNER)
          THE CONTACT CONSTRAINT ERRORS ARE WITHIN THE TOLERANCES.

 AVERAGE FORCE                      1.457E-08   TIME AVG. FORCE       1.661E-03
 LARGEST RESIDUAL FORCE            -1.899E-09   AT NODE        278   DOF  1
   INSTANCE: PISTON-1                                                                        
 LARGEST INCREMENT OF DISP.         7.198E-02   AT NODE         44   DOF  2
   INSTANCE: CAP-1                                                                           
 LARGEST CORRECTION TO DISP.       -1.149E-12   AT NODE         26   DOF  2
   INSTANCE: CAP-1                                                                           
          THERE IS ZERO FORCE     EVERYWHERE

 ITERATION SUMMARY FOR THE INCREMENT:   2 TOTAL ITERATIONS, OF WHICH
   2 ARE SEVERE DISCONTINUITY ITERATIONS AND  0 ARE EQUILIBRIUM ITERATIONS.

 TIME INCREMENT COMPLETED  1.000E-03,  FRACTION OF STEP COMPLETED  1.000E-02
 STEP TIME COMPLETED       1.000E-02,  TOTAL TIME COMPLETED        1.000E-02
  
     ASYNCHRONOUS OUTPUT DATABASE FRAME FLUSH STARTED
  


  INCREMENT    11 STARTS. ATTEMPT NUMBER  1, TIME INCREMENT  1.000E-03
  
     ASYNCHRONOUS TRACKING ELEMENT LOOP STARTED
  

  NUMBER OF EQUATIONS =     9434     NUMBER OF FLOATING PT. OPERATIONS =  3.18E+07

  USING THE DIRECT SOLVER WITH  14 PROCESSORS

     CHECK POINT   START OF SOLVER    

     CHECK POINT  END OF SOLVER       

       ELAPSED USER TIME (SEC)      =  0.25000    
       ELAPSED SYSTEM TIME (SEC)    =  5.00000E-02
       ELAPSED TOTAL CPU TIME (SEC) =  0.30000    
       ELAPSED WALLCLOCK TIME (SEC) =          0
  
     ASYNCHRONOUS TRACKING ELEMENT LOOP STARTED
  

                    6 SEVERE DISCONTINUITIES OCCURRED DURING THIS ITERATION.
                    3 POINTS CHANGED FROM OPEN TO CLOSED
                    3 POINTS CHANGED FROM STICKING TO SLIPPING

               CONVERGENCE CHECKS FOR SEVERE DISCONTINUITY ITERATION     1

   MAX. PENETRATION ERROR -4.43941E-15 AT NODE CAP-1.169 OF CONTACT PAIR 
   (ASSEMBLY_CAP-1_TRANSITION-AND-PUMP-CONTACT,ASSEMBLY_PUMP-TUBE-1_PISTON-CONTA
   CT)
   MAX. CONTACT FORCE ERROR -28.3963E-09  AT NODE PISTON-1.23 OF CONTACT PAIR 
   (ASSEMBLY_PISTON-1_PUMP-CONTACT,ASSEMBLY_TUBE-INNER)
          THE CONTACT CONSTRAINT ERRORS ARE WITHIN THE TOLERANCES.

 AVERAGE FORCE                      1.352E-08   TIME AVG. FORCE       1.661E-03
 LARGEST RESIDUAL FORCE             3.091E-08   AT NODE         25   DOF  2
   INSTANCE: PUMP-TUBE-1                                                                     
 LARGEST INCREMENT OF DISP.         7.865E-02   AT NODE         23   DOF  2
   INSTANCE: CAP-1                                                                           
 LARGEST CORRECTION TO DISP.        6.672E-03   AT NODE        149   DOF  2
   INSTANCE: CAP-1                                                                           
          THE FORCE     IS ZERO EVERYWHERE BUT THE FORCE     RESIDUAL OR
          THE DISP.    CORRECTION IS NON-ZERO

  NUMBER OF EQUATIONS =     9434     NUMBER OF FLOATING PT. OPERATIONS =  3.18E+07

  USING THE DIRECT SOLVER WITH  14 PROCESSORS

     CHECK POINT   START OF SOLVER    

     CHECK POINT  END OF SOLVER       

       ELAPSED USER TIME (SEC)      =  0.22000    
       ELAPSED SYSTEM TIME (SEC)    =  9.00000E-02
       ELAPSED TOTAL CPU TIME (SEC) =  0.31000    
       ELAPSED WALLCLOCK TIME (SEC) =          0
  
     ASYNCHRONOUS TRACKING ELEMENT LOOP STARTED
  

                    1 SEVERE DISCONTINUITIES OCCURRED DURING THIS ITERATION.
                    1 POINTS CHANGED FROM CLOSED TO OPEN

               CONVERGENCE CHECKS FOR SEVERE DISCONTINUITY ITERATION     2

   MAX. PENETRATION ERROR -3.54175E-15 AT NODE PISTON-1.482 OF CONTACT PAIR 
   (ASSEMBLY_PISTON-1_PUMP-CONTACT,ASSEMBLY_TUBE-INNER)
   MAX. CONTACT FORCE ERROR -27.8074E-09  AT NODE PISTON-1.13 OF CONTACT PAIR 
   (ASSEMBLY_PISTON-1_PUMP-CONTACT,ASSEMBLY_TUBE-INNER)
          THE CONTACT CONSTRAINT ERRORS ARE WITHIN THE TOLERANCES.

 AVERAGE FORCE                      1.469E-08   TIME AVG. FORCE       1.661E-03
 LARGEST RESIDUAL FORCE            -1.629E-09   AT NODE        278   DOF  1
   INSTANCE: PISTON-1                                                                        
 LARGEST INCREMENT OF DISP.         7.865E-02   AT NODE         44   DOF  2
   INSTANCE: CAP-1                                                                           
 LARGEST CORRECTION TO DISP.       -2.660E-13   AT NODE         23   DOF  2
   INSTANCE: CAP-1                                                                           
          THERE IS ZERO FORCE     EVERYWHERE

 ITERATION SUMMARY FOR THE INCREMENT:   2 TOTAL ITERATIONS, OF WHICH
   2 ARE SEVERE DISCONTINUITY ITERATIONS AND  0 ARE EQUILIBRIUM ITERATIONS.

 TIME INCREMENT COMPLETED  1.000E-03,  FRACTION OF STEP COMPLETED  1.100E-02
 STEP TIME COMPLETED       1.100E-02,  TOTAL TIME COMPLETED        1.100E-02
  
     ASYNCHRONOUS OUTPUT DATABASE FRAME FLUSH STARTED
  


  INCREMENT    12 STARTS. ATTEMPT NUMBER  1, TIME INCREMENT  1.000E-03
  
     ASYNCHRONOUS TRACKING ELEMENT LOOP STARTED
  

  NUMBER OF EQUATIONS =     9434     NUMBER OF FLOATING PT. OPERATIONS =  3.18E+07

  USING THE DIRECT SOLVER WITH  14 PROCESSORS

     CHECK POINT   START OF SOLVER    

     CHECK POINT  END OF SOLVER       

       ELAPSED USER TIME (SEC)      =  0.24000    
       ELAPSED SYSTEM TIME (SEC)    =  7.00000E-02
       ELAPSED TOTAL CPU TIME (SEC) =  0.31000    
       ELAPSED WALLCLOCK TIME (SEC) =          0
  
     ASYNCHRONOUS TRACKING ELEMENT LOOP STARTED
  

                    1 SEVERE DISCONTINUITIES OCCURRED DURING THIS ITERATION.
                    1 POINTS CHANGED FROM CLOSED TO OPEN

               CONVERGENCE CHECKS FOR SEVERE DISCONTINUITY ITERATION     1

   MAX. PENETRATION ERROR -3.55099E-15 AT NODE PISTON-1.11 OF CONTACT PAIR 
   (ASSEMBLY_PISTON-1_PUMP-CONTACT,ASSEMBLY_TUBE-INNER)
   MAX. CONTACT FORCE ERROR -31.4597E-09  AT NODE PISTON-1.11 OF CONTACT PAIR 
   (ASSEMBLY_PISTON-1_PUMP-CONTACT,ASSEMBLY_TUBE-INNER)
          THE CONTACT CONSTRAINT ERRORS ARE WITHIN THE TOLERANCES.

 AVERAGE FORCE                      1.354E-08   TIME AVG. FORCE       1.661E-03
 LARGEST RESIDUAL FORCE             2.096E-08   AT NODE        969   DOF  2
   INSTANCE: PUMP-TUBE-1                                                                     
 LARGEST INCREMENT OF DISP.         8.503E-02   AT NODE        225   DOF  2
   INSTANCE: CAP-1                                                                           
 LARGEST CORRECTION TO DISP.        6.376E-03   AT NODE        149   DOF  2
   INSTANCE: CAP-1                                                                           
          THE FORCE     IS ZERO EVERYWHERE BUT THE FORCE     RESIDUAL OR
          THE DISP.    CORRECTION IS NON-ZERO

  NUMBER OF EQUATIONS =     9434     NUMBER OF FLOATING PT. OPERATIONS =  3.18E+07

  USING THE DIRECT SOLVER WITH  14 PROCESSORS

     CHECK POINT   START OF SOLVER    

     CHECK POINT  END OF SOLVER       

       ELAPSED USER TIME (SEC)      =  0.23000    
       ELAPSED SYSTEM TIME (SEC)    =  7.00000E-02
       ELAPSED TOTAL CPU TIME (SEC) =  0.30000    
       ELAPSED WALLCLOCK TIME (SEC) =          0
  
     ASYNCHRONOUS TRACKING ELEMENT LOOP STARTED
  

               CONVERGENCE CHECKS FOR EQUILIBRIUM ITERATION     1

   MAX. PENETRATION ERROR 3.78015E-15 AT NODE PISTON-1.11 OF CONTACT PAIR 
   (ASSEMBLY_PISTON-1_PUMP-CONTACT,ASSEMBLY_TUBE-INNER)
   MAX. CONTACT FORCE ERROR 33.4899E-09  AT NODE PISTON-1.11 OF CONTACT PAIR 
   (ASSEMBLY_PISTON-1_PUMP-CONTACT,ASSEMBLY_TUBE-INNER)
          THE CONTACT CONSTRAINTS HAVE CONVERGED.

 AVERAGE FORCE                      1.476E-08   TIME AVG. FORCE       1.661E-03
 LARGEST RESIDUAL FORCE            -1.457E-09   AT NODE        235   DOF  2
   INSTANCE: PISTON-1                                                                        
 LARGEST INCREMENT OF DISP.         8.503E-02   AT NODE          8   DOF  2
   INSTANCE: PISTON-1                                                                        
 LARGEST CORRECTION TO DISP.       -1.331E-13   AT NODE          7   DOF  2
   INSTANCE: CAP-1                                                                           
          THERE IS ZERO FORCE     EVERYWHERE

 ITERATION SUMMARY FOR THE INCREMENT:   2 TOTAL ITERATIONS, OF WHICH
   1 ARE SEVERE DISCONTINUITY ITERATIONS AND  1 ARE EQUILIBRIUM ITERATIONS.

 TIME INCREMENT COMPLETED  1.000E-03,  FRACTION OF STEP COMPLETED  1.200E-02
 STEP TIME COMPLETED       1.200E-02,  TOTAL TIME COMPLETED        1.200E-02
  
     ASYNCHRONOUS OUTPUT DATABASE FRAME FLUSH STARTED
  


  INCREMENT    13 STARTS. ATTEMPT NUMBER  1, TIME INCREMENT  1.000E-03
  
     ASYNCHRONOUS TRACKING ELEMENT LOOP STARTED
  

  NUMBER OF EQUATIONS =     9434     NUMBER OF FLOATING PT. OPERATIONS =  3.18E+07

  USING THE DIRECT SOLVER WITH  14 PROCESSORS

     CHECK POINT   START OF SOLVER    

     CHECK POINT  END OF SOLVER       

       ELAPSED USER TIME (SEC)      =  0.28000    
       ELAPSED SYSTEM TIME (SEC)    =  4.00000E-02
       ELAPSED TOTAL CPU TIME (SEC) =  0.32000    
       ELAPSED WALLCLOCK TIME (SEC) =          0
  
     ASYNCHRONOUS TRACKING ELEMENT LOOP STARTED
  

                    2 SEVERE DISCONTINUITIES OCCURRED DURING THIS ITERATION.
                    1 POINTS CHANGED FROM OPEN TO CLOSED
                    1 POINTS CHANGED FROM STICKING TO SLIPPING

               CONVERGENCE CHECKS FOR SEVERE DISCONTINUITY ITERATION     1

   MAX. PENETRATION ERROR -4.06552E-15 AT NODE PISTON-1.1 OF CONTACT PAIR 
   (ASSEMBLY_PISTON-1_PUMP-CONTACT,ASSEMBLY_TUBE-INNER)
   MAX. CONTACT FORCE ERROR 22.6555E-09  AT NODE PISTON-1.25 OF CONTACT PAIR 
   (ASSEMBLY_PISTON-1_PUMP-CONTACT,ASSEMBLY_TUBE-INNER)
          THE CONTACT CONSTRAINT ERRORS ARE WITHIN THE TOLERANCES.

 AVERAGE FORCE                      1.387E-08   TIME AVG. FORCE       1.661E-03
 LARGEST RESIDUAL FORCE             1.407E-08   AT NODE         20   DOF  2
   INSTANCE: PUMP-TUBE-1                                                                     
 LARGEST INCREMENT OF DISP.         9.108E-02   AT NODE          7   DOF  2
   INSTANCE: CAP-1                                                                           
 LARGEST CORRECTION TO DISP.        6.051E-03   AT NODE        149   DOF  2
   INSTANCE: CAP-1                                                                           
          THERE IS ZERO FORCE     EVERYWHERE

 ITERATION SUMMARY FOR THE INCREMENT:   1 TOTAL ITERATIONS, OF WHICH
   1 ARE SEVERE DISCONTINUITY ITERATIONS AND  0 ARE EQUILIBRIUM ITERATIONS.

 TIME INCREMENT COMPLETED  1.000E-03,  FRACTION OF STEP COMPLETED  1.300E-02
 STEP TIME COMPLETED       1.300E-02,  TOTAL TIME COMPLETED        1.300E-02
  
     ASYNCHRONOUS OUTPUT DATABASE FRAME FLUSH STARTED
  


  INCREMENT    14 STARTS. ATTEMPT NUMBER  1, TIME INCREMENT  1.000E-03
  
     ASYNCHRONOUS TRACKING ELEMENT LOOP STARTED
  

  NUMBER OF EQUATIONS =     9434     NUMBER OF FLOATING PT. OPERATIONS =  3.18E+07

  USING THE DIRECT SOLVER WITH  14 PROCESSORS

     CHECK POINT   START OF SOLVER    

     CHECK POINT  END OF SOLVER       

       ELAPSED USER TIME (SEC)      =  0.22000    
       ELAPSED SYSTEM TIME (SEC)    =  8.00000E-02
       ELAPSED TOTAL CPU TIME (SEC) =  0.30000    
       ELAPSED WALLCLOCK TIME (SEC) =          0
  
     ASYNCHRONOUS TRACKING ELEMENT LOOP STARTED
  

                    1 SEVERE DISCONTINUITIES OCCURRED DURING THIS ITERATION.
                    1 POINTS CHANGED FROM CLOSED TO OPEN

               CONVERGENCE CHECKS FOR SEVERE DISCONTINUITY ITERATION     1

   MAX. PENETRATION ERROR -3.21283E-15 AT NODE PISTON-1.510 OF CONTACT PAIR 
   (ASSEMBLY_PISTON-1_PUMP-CONTACT,ASSEMBLY_TUBE-INNER)
   MAX. CONTACT FORCE ERROR -28.4639E-09  AT NODE PISTON-1.510 OF CONTACT PAIR 
   (ASSEMBLY_PISTON-1_PUMP-CONTACT,ASSEMBLY_TUBE-INNER)
          THE CONTACT CONSTRAINT ERRORS ARE WITHIN THE TOLERANCES.

 AVERAGE FORCE                      1.320E-08   TIME AVG. FORCE       1.661E-03
 LARGEST RESIDUAL FORCE            -2.025E-08   AT NODE        473   DOF  2
   INSTANCE: PISTON-1                                                                        
 LARGEST INCREMENT OF DISP.         9.678E-02   AT NODE        224   DOF  2
   INSTANCE: CAP-1                                                                           
 LARGEST CORRECTION TO DISP.        5.697E-03   AT NODE          8   DOF  2
   INSTANCE: PISTON-1                                                                        
          THE FORCE     IS ZERO EVERYWHERE BUT THE FORCE     RESIDUAL OR
          THE DISP.    CORRECTION IS NON-ZERO

  NUMBER OF EQUATIONS =     9434     NUMBER OF FLOATING PT. OPERATIONS =  3.16E+07

  USING THE DIRECT SOLVER WITH  14 PROCESSORS

     CHECK POINT   START OF SOLVER    

     CHECK POINT  END OF SOLVER       

       ELAPSED USER TIME (SEC)      =  0.24000    
       ELAPSED SYSTEM TIME (SEC)    =  7.00000E-02
       ELAPSED TOTAL CPU TIME (SEC) =  0.31000    
       ELAPSED WALLCLOCK TIME (SEC) =          1
  
     ASYNCHRONOUS TRACKING ELEMENT LOOP STARTED
  

                    3 SEVERE DISCONTINUITIES OCCURRED DURING THIS ITERATION.
                    1 POINTS CHANGED FROM OPEN TO CLOSED
                    1 POINTS CHANGED FROM CLOSED TO OPEN
                    1 POINTS CHANGED FROM STICKING TO SLIPPING

               CONVERGENCE CHECKS FOR SEVERE DISCONTINUITY ITERATION     2

   MAX. PENETRATION ERROR 3.01032E-15 AT NODE CAP-1.173 OF CONTACT PAIR 
   (ASSEMBLY_CAP-1_TRANSITION-AND-PUMP-CONTACT,ASSEMBLY_PUMP-TUBE-1_PISTON-CONTA
   CT)
   MAX. CONTACT FORCE ERROR 23.2917E-09  AT NODE PISTON-1.25 OF CONTACT PAIR 
   (ASSEMBLY_PISTON-1_PUMP-CONTACT,ASSEMBLY_TUBE-INNER)
          THE CONTACT CONSTRAINT ERRORS ARE WITHIN THE TOLERANCES.

 AVERAGE FORCE                      1.468E-08   TIME AVG. FORCE       1.661E-03
 LARGEST RESIDUAL FORCE            -3.195E-09   AT NODE         27   DOF  1
   INSTANCE: PISTON-1                                                                        
 LARGEST INCREMENT OF DISP.         9.678E-02   AT NODE          8   DOF  2
   INSTANCE: PISTON-1                                                                        
 LARGEST CORRECTION TO DISP.       -1.631E-13   AT NODE        198   DOF  2
   INSTANCE: CAP-1                                                                           
          THERE IS ZERO FORCE     EVERYWHERE

 ITERATION SUMMARY FOR THE INCREMENT:   2 TOTAL ITERATIONS, OF WHICH
   2 ARE SEVERE DISCONTINUITY ITERATIONS AND  0 ARE EQUILIBRIUM ITERATIONS.

 TIME INCREMENT COMPLETED  1.000E-03,  FRACTION OF STEP COMPLETED  1.400E-02
 STEP TIME COMPLETED       1.400E-02,  TOTAL TIME COMPLETED        1.400E-02
  
     ASYNCHRONOUS OUTPUT DATABASE FRAME FLUSH STARTED
  


  INCREMENT    15 STARTS. ATTEMPT NUMBER  1, TIME INCREMENT  1.000E-03
  
     ASYNCHRONOUS TRACKING ELEMENT LOOP STARTED
  

  NUMBER OF EQUATIONS =     9434     NUMBER OF FLOATING PT. OPERATIONS =  2.99E+07

  USING THE DIRECT SOLVER WITH  14 PROCESSORS

     CHECK POINT   START OF SOLVER    

     CHECK POINT  END OF SOLVER       

       ELAPSED USER TIME (SEC)      =  0.26000    
       ELAPSED SYSTEM TIME (SEC)    =  6.00000E-02
       ELAPSED TOTAL CPU TIME (SEC) =  0.32000    
       ELAPSED WALLCLOCK TIME (SEC) =          0
  
     ASYNCHRONOUS TRACKING ELEMENT LOOP STARTED
  

                    5 SEVERE DISCONTINUITIES OCCURRED DURING THIS ITERATION.
                    2 POINTS CHANGED FROM OPEN TO CLOSED
                    1 POINTS CHANGED FROM CLOSED TO OPEN
                    2 POINTS CHANGED FROM STICKING TO SLIPPING

               CONVERGENCE CHECKS FOR SEVERE DISCONTINUITY ITERATION     1

   MAX. PENETRATION ERROR 2.68344E-15 AT NODE PISTON-1.15 OF CONTACT PAIR 
   (ASSEMBLY_PISTON-1_PUMP-CONTACT,ASSEMBLY_TUBE-INNER)
   MAX. CONTACT FORCE ERROR 23.7737E-09  AT NODE PISTON-1.15 OF CONTACT PAIR 
   (ASSEMBLY_PISTON-1_PUMP-CONTACT,ASSEMBLY_TUBE-INNER)
          THE CONTACT CONSTRAINT ERRORS ARE WITHIN THE TOLERANCES.

 AVERAGE FORCE                      1.376E-08   TIME AVG. FORCE       1.661E-03
 LARGEST RESIDUAL FORCE            -2.262E-08   AT NODE        546   DOF  2
   INSTANCE: PISTON-1                                                                        
 LARGEST INCREMENT OF DISP.         0.102       AT NODE          7   DOF  2
   INSTANCE: CAP-1                                                                           
 LARGEST CORRECTION TO DISP.        5.317E-03   AT NODE          7   DOF  2
   INSTANCE: CAP-1                                                                           
          THE FORCE     IS ZERO EVERYWHERE BUT THE FORCE     RESIDUAL OR
          THE DISP.    CORRECTION IS NON-ZERO

  NUMBER OF EQUATIONS =     9434     NUMBER OF FLOATING PT. OPERATIONS =  3.17E+07

  USING THE DIRECT SOLVER WITH  14 PROCESSORS

     CHECK POINT   START OF SOLVER    

     CHECK POINT  END OF SOLVER       

       ELAPSED USER TIME (SEC)      =  0.32000    
       ELAPSED SYSTEM TIME (SEC)    =  5.00000E-02
       ELAPSED TOTAL CPU TIME (SEC) =  0.37000    
       ELAPSED WALLCLOCK TIME (SEC) =          0
  
     ASYNCHRONOUS TRACKING ELEMENT LOOP STARTED
  

               CONVERGENCE CHECKS FOR EQUILIBRIUM ITERATION     1

   MAX. PENETRATION ERROR -3.34505E-15 AT NODE CAP-1.157 OF CONTACT PAIR 
   (ASSEMBLY_CAP-1_TRANSITION-AND-PUMP-CONTACT,ASSEMBLY_PUMP-TUBE-1_PISTON-CONTA
   CT)
   MAX. CONTACT FORCE ERROR 21.3007E-09  AT NODE PISTON-1.23 OF CONTACT PAIR 
   (ASSEMBLY_PISTON-1_PUMP-CONTACT,ASSEMBLY_TUBE-INNER)
          THE CONTACT CONSTRAINTS HAVE CONVERGED.

 AVERAGE FORCE                      1.470E-08   TIME AVG. FORCE       1.661E-03
 LARGEST RESIDUAL FORCE            -1.132E-09   AT NODE        291   DOF  2
   INSTANCE: PISTON-1                                                                        
 LARGEST INCREMENT OF DISP.         0.102       AT NODE          8   DOF  2
   INSTANCE: PISTON-1                                                                        
 LARGEST CORRECTION TO DISP.       -9.941E-14   AT NODE        241   DOF  2
   INSTANCE: CAP-1                                                                           
          THERE IS ZERO FORCE     EVERYWHERE

 ITERATION SUMMARY FOR THE INCREMENT:   2 TOTAL ITERATIONS, OF WHICH
   1 ARE SEVERE DISCONTINUITY ITERATIONS AND  1 ARE EQUILIBRIUM ITERATIONS.

 TIME INCREMENT COMPLETED  1.000E-03,  FRACTION OF STEP COMPLETED  1.500E-02
 STEP TIME COMPLETED       1.500E-02,  TOTAL TIME COMPLETED        1.500E-02
  
     ASYNCHRONOUS OUTPUT DATABASE FRAME FLUSH STARTED
  


  INCREMENT    16 STARTS. ATTEMPT NUMBER  1, TIME INCREMENT  1.000E-03
  
     ASYNCHRONOUS TRACKING ELEMENT LOOP STARTED
  

  NUMBER OF EQUATIONS =     9434     NUMBER OF FLOATING PT. OPERATIONS =  3.37E+07

  USING THE DIRECT SOLVER WITH  14 PROCESSORS

     CHECK POINT   START OF SOLVER    

     CHECK POINT  END OF SOLVER       

       ELAPSED USER TIME (SEC)      =  0.19000    
       ELAPSED SYSTEM TIME (SEC)    =  0.12000    
       ELAPSED TOTAL CPU TIME (SEC) =  0.31000    
       ELAPSED WALLCLOCK TIME (SEC) =          0
  
     ASYNCHRONOUS TRACKING ELEMENT LOOP STARTED
  

                    3 SEVERE DISCONTINUITIES OCCURRED DURING THIS ITERATION.
                    1 POINTS CHANGED FROM OPEN TO CLOSED
                    1 POINTS CHANGED FROM CLOSED TO OPEN
                    1 POINTS CHANGED FROM STICKING TO SLIPPING

               CONVERGENCE CHECKS FOR SEVERE DISCONTINUITY ITERATION     1

   MAX. PENETRATION ERROR -3.73078E-15 AT NODE PISTON-1.23 OF CONTACT PAIR 
   (ASSEMBLY_PISTON-1_PUMP-CONTACT,ASSEMBLY_TUBE-INNER)
   MAX. CONTACT FORCE ERROR 28.3715E-09  AT NODE PISTON-1.19 OF CONTACT PAIR 
   (ASSEMBLY_PISTON-1_PUMP-CONTACT,ASSEMBLY_TUBE-INNER)
          THE CONTACT CONSTRAINT ERRORS ARE WITHIN THE TOLERANCES.

 AVERAGE FORCE                      1.385E-08   TIME AVG. FORCE       1.661E-03
 LARGEST RESIDUAL FORCE            -1.726E-08   AT NODE         21   DOF  2
   INSTANCE: PISTON-1                                                                        
 LARGEST INCREMENT OF DISP.         0.107       AT NODE         44   DOF  2
   INSTANCE: CAP-1                                                                           
 LARGEST CORRECTION TO DISP.        4.913E-03   AT NODE         44   DOF  2
   INSTANCE: CAP-1                                                                           
          THE FORCE     IS ZERO EVERYWHERE BUT THE FORCE     RESIDUAL OR
          THE DISP.    CORRECTION IS NON-ZERO

  NUMBER OF EQUATIONS =     9434     NUMBER OF FLOATING PT. OPERATIONS =  3.37E+07

  USING THE DIRECT SOLVER WITH  14 PROCESSORS

     CHECK POINT   START OF SOLVER    

     CHECK POINT  END OF SOLVER       

       ELAPSED USER TIME (SEC)      =  0.26000    
       ELAPSED SYSTEM TIME (SEC)    =  7.00000E-02
       ELAPSED TOTAL CPU TIME (SEC) =  0.33000    
       ELAPSED WALLCLOCK TIME (SEC) =          0
  
     ASYNCHRONOUS TRACKING ELEMENT LOOP STARTED
  

                    1 SEVERE DISCONTINUITIES OCCURRED DURING THIS ITERATION.
                    1 POINTS CHANGED FROM CLOSED TO OPEN

               CONVERGENCE CHECKS FOR SEVERE DISCONTINUITY ITERATION     2

   MAX. PENETRATION ERROR 3.40592E-15 AT NODE PISTON-1.23 OF CONTACT PAIR 
   (ASSEMBLY_PISTON-1_PUMP-CONTACT,ASSEMBLY_TUBE-INNER)
   MAX. CONTACT FORCE ERROR 24.1396E-09  AT NODE PISTON-1.23 OF CONTACT PAIR 
   (ASSEMBLY_PISTON-1_PUMP-CONTACT,ASSEMBLY_TUBE-INNER)
          THE CONTACT CONSTRAINT ERRORS ARE WITHIN THE TOLERANCES.

 AVERAGE FORCE                      1.470E-08   TIME AVG. FORCE       1.661E-03
 LARGEST RESIDUAL FORCE            -3.328E-09   AT NODE         27   DOF  1
   INSTANCE: PISTON-1                                                                        
 LARGEST INCREMENT OF DISP.         0.107       AT NODE         44   DOF  2
   INSTANCE: CAP-1                                                                           
 LARGEST CORRECTION TO DISP.       -9.066E-14   AT NODE        226   DOF  2
   INSTANCE: CAP-1                                                                           
          THERE IS ZERO FORCE     EVERYWHERE

 ITERATION SUMMARY FOR THE INCREMENT:   2 TOTAL ITERATIONS, OF WHICH
   2 ARE SEVERE DISCONTINUITY ITERATIONS AND  0 ARE EQUILIBRIUM ITERATIONS.

 TIME INCREMENT COMPLETED  1.000E-03,  FRACTION OF STEP COMPLETED  1.600E-02
 STEP TIME COMPLETED       1.600E-02,  TOTAL TIME COMPLETED        1.600E-02
  
     ASYNCHRONOUS OUTPUT DATABASE FRAME FLUSH STARTED
  


  INCREMENT    17 STARTS. ATTEMPT NUMBER  1, TIME INCREMENT  1.000E-03
  
     ASYNCHRONOUS TRACKING ELEMENT LOOP STARTED
  

  NUMBER OF EQUATIONS =     9434     NUMBER OF FLOATING PT. OPERATIONS =  3.37E+07

  USING THE DIRECT SOLVER WITH  14 PROCESSORS

     CHECK POINT   START OF SOLVER    

     CHECK POINT  END OF SOLVER       

       ELAPSED USER TIME (SEC)      =  0.24000    
       ELAPSED SYSTEM TIME (SEC)    =  7.00000E-02
       ELAPSED TOTAL CPU TIME (SEC) =  0.31000    
       ELAPSED WALLCLOCK TIME (SEC) =          0
  
     ASYNCHRONOUS TRACKING ELEMENT LOOP STARTED
  

                    2 SEVERE DISCONTINUITIES OCCURRED DURING THIS ITERATION.
                    2 POINTS CHANGED FROM CLOSED TO OPEN

               CONVERGENCE CHECKS FOR SEVERE DISCONTINUITY ITERATION     1

   MAX. PENETRATION ERROR 2.81330E-15 AT NODE PISTON-1.13 OF CONTACT PAIR 
   (ASSEMBLY_PISTON-1_PUMP-CONTACT,ASSEMBLY_TUBE-INNER)
   MAX. CONTACT FORCE ERROR 22.9585E-09  AT NODE PISTON-1.13 OF CONTACT PAIR 
   (ASSEMBLY_PISTON-1_PUMP-CONTACT,ASSEMBLY_TUBE-INNER)
          THE CONTACT CONSTRAINT ERRORS ARE WITHIN THE TOLERANCES.

 AVERAGE FORCE                      1.279E-08   TIME AVG. FORCE       1.661E-03
 LARGEST RESIDUAL FORCE            -1.961E-08   AT NODE        501   DOF  2
   INSTANCE: PISTON-1                                                                        
 LARGEST INCREMENT OF DISP.         0.111       AT NODE          7   DOF  2
   INSTANCE: CAP-1                                                                           
 LARGEST CORRECTION TO DISP.        4.484E-03   AT NODE          7   DOF  2
   INSTANCE: CAP-1                                                                           
          THE FORCE     IS ZERO EVERYWHERE BUT THE FORCE     RESIDUAL OR
          THE DISP.    CORRECTION IS NON-ZERO

  NUMBER OF EQUATIONS =     9434     NUMBER OF FLOATING PT. OPERATIONS =  3.37E+07

  USING THE DIRECT SOLVER WITH  14 PROCESSORS

     CHECK POINT   START OF SOLVER    

     CHECK POINT  END OF SOLVER       

       ELAPSED USER TIME (SEC)      =  0.28000    
       ELAPSED SYSTEM TIME (SEC)    =  9.00000E-02
       ELAPSED TOTAL CPU TIME (SEC) =  0.37000    
       ELAPSED WALLCLOCK TIME (SEC) =          0
  
     ASYNCHRONOUS TRACKING ELEMENT LOOP STARTED
  

                    6 SEVERE DISCONTINUITIES OCCURRED DURING THIS ITERATION.
                    3 POINTS CHANGED FROM OPEN TO CLOSED
                    3 POINTS CHANGED FROM STICKING TO SLIPPING

               CONVERGENCE CHECKS FOR SEVERE DISCONTINUITY ITERATION     2

   MAX. PENETRATION ERROR 5.16515E-15 AT NODE PISTON-1.482 OF CONTACT PAIR 
   (ASSEMBLY_PISTON-1_PUMP-CONTACT,ASSEMBLY_TUBE-INNER)
   MAX. CONTACT FORCE ERROR 45.7603E-09  AT NODE PISTON-1.482 OF CONTACT PAIR 
   (ASSEMBLY_PISTON-1_PUMP-CONTACT,ASSEMBLY_TUBE-INNER)
          THE CONTACT CONSTRAINT ERRORS ARE WITHIN THE TOLERANCES.

 AVERAGE FORCE                      1.471E-08   TIME AVG. FORCE       1.661E-03
 LARGEST RESIDUAL FORCE             1.113E-09   AT NODE         99   DOF  2
   INSTANCE: PISTON-1                                                                        
 LARGEST INCREMENT OF DISP.         0.111       AT NODE         25   DOF  2
   INSTANCE: CAP-1                                                                           
 LARGEST CORRECTION TO DISP.       -2.286E-13   AT NODE          7   DOF  2
   INSTANCE: CAP-1                                                                           
          THERE IS ZERO FORCE     EVERYWHERE

 ITERATION SUMMARY FOR THE INCREMENT:   2 TOTAL ITERATIONS, OF WHICH
   2 ARE SEVERE DISCONTINUITY ITERATIONS AND  0 ARE EQUILIBRIUM ITERATIONS.

 TIME INCREMENT COMPLETED  1.000E-03,  FRACTION OF STEP COMPLETED  1.700E-02
 STEP TIME COMPLETED       1.700E-02,  TOTAL TIME COMPLETED        1.700E-02
  
     ASYNCHRONOUS OUTPUT DATABASE FRAME FLUSH STARTED
  


  INCREMENT    18 STARTS. ATTEMPT NUMBER  1, TIME INCREMENT  1.000E-03
  
     ASYNCHRONOUS TRACKING ELEMENT LOOP STARTED
  

  NUMBER OF EQUATIONS =     9434     NUMBER OF FLOATING PT. OPERATIONS =  3.37E+07

  USING THE DIRECT SOLVER WITH  14 PROCESSORS

     CHECK POINT   START OF SOLVER    

     CHECK POINT  END OF SOLVER       

       ELAPSED USER TIME (SEC)      =  0.23000    
       ELAPSED SYSTEM TIME (SEC)    =  8.00000E-02
       ELAPSED TOTAL CPU TIME (SEC) =  0.31000    
       ELAPSED WALLCLOCK TIME (SEC) =          0
  
     ASYNCHRONOUS TRACKING ELEMENT LOOP STARTED
  

                    4 SEVERE DISCONTINUITIES OCCURRED DURING THIS ITERATION.
                    1 POINTS CHANGED FROM OPEN TO CLOSED
                    2 POINTS CHANGED FROM CLOSED TO OPEN
                    1 POINTS CHANGED FROM STICKING TO SLIPPING

               CONVERGENCE CHECKS FOR SEVERE DISCONTINUITY ITERATION     1

   MAX. PENETRATION ERROR -2.99860E-15 AT NODE PISTON-1.18 OF CONTACT PAIR 
   (ASSEMBLY_PISTON-1_PUMP-CONTACT,ASSEMBLY_TUBE-INNER)
   MAX. CONTACT FORCE ERROR -26.5658E-09  AT NODE PISTON-1.18 OF CONTACT PAIR 
   (ASSEMBLY_PISTON-1_PUMP-CONTACT,ASSEMBLY_TUBE-INNER)
          THE CONTACT CONSTRAINT ERRORS ARE WITHIN THE TOLERANCES.

 AVERAGE FORCE                      1.373E-08   TIME AVG. FORCE       1.661E-03
 LARGEST RESIDUAL FORCE             2.183E-08   AT NODE         14   DOF  2
   INSTANCE: PUMP-TUBE-1                                                                     
 LARGEST INCREMENT OF DISP.         0.116       AT NODE         38   DOF  2
   INSTANCE: CAP-1                                                                           
 LARGEST CORRECTION TO DISP.        4.034E-03   AT NODE         38   DOF  2
   INSTANCE: CAP-1                                                                           
          THE FORCE     IS ZERO EVERYWHERE BUT THE FORCE     RESIDUAL OR
          THE DISP.    CORRECTION IS NON-ZERO

  NUMBER OF EQUATIONS =     9434     NUMBER OF FLOATING PT. OPERATIONS =  3.37E+07

  USING THE DIRECT SOLVER WITH  14 PROCESSORS

     CHECK POINT   START OF SOLVER    

     CHECK POINT  END OF SOLVER       

       ELAPSED USER TIME (SEC)      =  0.28000    
       ELAPSED SYSTEM TIME (SEC)    =  9.00000E-02
       ELAPSED TOTAL CPU TIME (SEC) =  0.37000    
       ELAPSED WALLCLOCK TIME (SEC) =          0
  
     ASYNCHRONOUS TRACKING ELEMENT LOOP STARTED
  

                    6 SEVERE DISCONTINUITIES OCCURRED DURING THIS ITERATION.
                    2 POINTS CHANGED FROM OPEN TO CLOSED
                    2 POINTS CHANGED FROM CLOSED TO OPEN
                    2 POINTS CHANGED FROM STICKING TO SLIPPING

               CONVERGENCE CHECKS FOR SEVERE DISCONTINUITY ITERATION     2

   MAX. PENETRATION ERROR -3.27507E-15 AT NODE CAP-1.22 OF CONTACT PAIR 
   (ASSEMBLY_CAP-1_TRANSITION-AND-PUMP-CONTACT,ASSEMBLY_PUMP-TUBE-1_PISTON-CONTA
   CT)
   MAX. CONTACT FORCE ERROR 25.1799E-09  AT NODE PISTON-1.21 OF CONTACT PAIR 
   (ASSEMBLY_PISTON-1_PUMP-CONTACT,ASSEMBLY_TUBE-INNER)
          THE CONTACT CONSTRAINT ERRORS ARE WITHIN THE TOLERANCES.

 AVERAGE FORCE                      1.470E-08   TIME AVG. FORCE       1.661E-03
 LARGEST RESIDUAL FORCE            -1.225E-08   AT NODE         16   DOF  1
   INSTANCE: PISTON-1                                                                        
 LARGEST INCREMENT OF DISP.         0.116       AT NODE          6   DOF  2
   INSTANCE: CAP-1                                                                           
 LARGEST CORRECTION TO DISP.       -1.064E-13   AT NODE        196   DOF  2
   INSTANCE: CAP-1                                                                           
          THERE IS ZERO FORCE     EVERYWHERE

 ITERATION SUMMARY FOR THE INCREMENT:   2 TOTAL ITERATIONS, OF WHICH
   2 ARE SEVERE DISCONTINUITY ITERATIONS AND  0 ARE EQUILIBRIUM ITERATIONS.

 TIME INCREMENT COMPLETED  1.000E-03,  FRACTION OF STEP COMPLETED  1.800E-02
 STEP TIME COMPLETED       1.800E-02,  TOTAL TIME COMPLETED        1.800E-02
  
     ASYNCHRONOUS OUTPUT DATABASE FRAME FLUSH STARTED
  


  INCREMENT    19 STARTS. ATTEMPT NUMBER  1, TIME INCREMENT  1.000E-03
  
     ASYNCHRONOUS TRACKING ELEMENT LOOP STARTED
  

  NUMBER OF EQUATIONS =     9434     NUMBER OF FLOATING PT. OPERATIONS =  3.35E+07

  USING THE DIRECT SOLVER WITH  14 PROCESSORS

     CHECK POINT   START OF SOLVER    

     CHECK POINT  END OF SOLVER       

       ELAPSED USER TIME (SEC)      =  0.29000    
       ELAPSED SYSTEM TIME (SEC)    =  0.10000    
       ELAPSED TOTAL CPU TIME (SEC) =  0.39000    
       ELAPSED WALLCLOCK TIME (SEC) =          0
  
     ASYNCHRONOUS TRACKING ELEMENT LOOP STARTED
  

                    4 SEVERE DISCONTINUITIES OCCURRED DURING THIS ITERATION.
                    1 POINTS CHANGED FROM OPEN TO CLOSED
                    2 POINTS CHANGED FROM CLOSED TO OPEN
[...]
   INSTANCE: CAP-1                                                                           
 LARGEST CORRECTION TO DISP.        4.084E-04   AT NODE        154   DOF  2
   INSTANCE: CAP-1                                                                           
          THE FORCE     EQUILIBRIUM EQUATIONS HAVE CONVERGED

 ITERATION SUMMARY FOR THE INCREMENT:   2 TOTAL ITERATIONS, OF WHICH
   0 ARE SEVERE DISCONTINUITY ITERATIONS AND  2 ARE EQUILIBRIUM ITERATIONS.

 TIME INCREMENT COMPLETED  1.000E-03,  FRACTION OF STEP COMPLETED  0.995    
 STEP TIME COMPLETED       0.995    ,  TOTAL TIME COMPLETED        0.995    
  
     ASYNCHRONOUS OUTPUT DATABASE FRAME FLUSH STARTED
  


  INCREMENT   996 STARTS. ATTEMPT NUMBER  1, TIME INCREMENT  1.000E-03
  
     ASYNCHRONOUS TRACKING ELEMENT LOOP STARTED
  

  NUMBER OF EQUATIONS =     9434     NUMBER OF FLOATING PT. OPERATIONS =  3.16E+07

  USING THE DIRECT SOLVER WITH  14 PROCESSORS

     CHECK POINT   START OF SOLVER    

     CHECK POINT  END OF SOLVER       

       ELAPSED USER TIME (SEC)      =  0.25000    
       ELAPSED SYSTEM TIME (SEC)    =  6.00000E-02
       ELAPSED TOTAL CPU TIME (SEC) =  0.31000    
       ELAPSED WALLCLOCK TIME (SEC) =          0
  
     ASYNCHRONOUS TRACKING ELEMENT LOOP STARTED
  

               CONVERGENCE CHECKS FOR EQUILIBRIUM ITERATION     1

   MAX. PENETRATION ERROR 59.1332E-06  AT NODE CAP-1.31 OF CONTACT PAIR 
   (ASSEMBLY_CAP-1_TRANSITION-AND-PUMP-CONTACT,ASSEMBLY_TRANSITION-PIECE-1_END-C
   ONTACT)
   MAX. CONTACT FORCE ERROR 36.7636      AT NODE CAP-1.31 OF CONTACT PAIR 
   (ASSEMBLY_CAP-1_TRANSITION-AND-PUMP-CONTACT,ASSEMBLY_TRANSITION-PIECE-1_END-C
   ONTACT)
          THE CONTACT CONSTRAINTS HAVE CONVERGED.

 AVERAGE FORCE                      3.213E+03   TIME AVG. FORCE        456.    
 LARGEST RESIDUAL FORCE             -15.8       AT NODE        218   DOF  2
   INSTANCE: CAP-1                                                                           
 LARGEST INCREMENT OF DISP.         0.208       AT NODE          7   DOF  2
   INSTANCE: CAP-1                                                                           
 LARGEST CORRECTION TO DISP.       -3.952E-02   AT NODE        201   DOF  2
   INSTANCE: CAP-1                                                                           
          FORCE     EQUILIBRIUM NOT ACHIEVED WITHIN TOLERANCE.

  NUMBER OF EQUATIONS =     9434     NUMBER OF FLOATING PT. OPERATIONS =  3.16E+07

  USING THE DIRECT SOLVER WITH  14 PROCESSORS

     CHECK POINT   START OF SOLVER    

     CHECK POINT  END OF SOLVER       

       ELAPSED USER TIME (SEC)      =  0.25000    
       ELAPSED SYSTEM TIME (SEC)    =  6.00000E-02
       ELAPSED TOTAL CPU TIME (SEC) =  0.31000    
       ELAPSED WALLCLOCK TIME (SEC) =          0
  
     ASYNCHRONOUS TRACKING ELEMENT LOOP STARTED
  

               CONVERGENCE CHECKS FOR EQUILIBRIUM ITERATION     2

   MAX. PENETRATION ERROR -111.212E-09   AT NODE CAP-1.31 OF CONTACT PAIR 
   (ASSEMBLY_CAP-1_TRANSITION-AND-PUMP-CONTACT,ASSEMBLY_TRANSITION-PIECE-1_END-C
   ONTACT)
   MAX. CONTACT FORCE ERROR -69.1401E-03  AT NODE CAP-1.31 OF CONTACT PAIR 
   (ASSEMBLY_CAP-1_TRANSITION-AND-PUMP-CONTACT,ASSEMBLY_TRANSITION-PIECE-1_END-C
   ONTACT)
          THE CONTACT CONSTRAINTS HAVE CONVERGED.

 AVERAGE FORCE                      3.227E+03   TIME AVG. FORCE        456.    
 LARGEST RESIDUAL FORCE            -0.133       AT NODE        218   DOF  1
   INSTANCE: CAP-1                                                                           
 LARGEST INCREMENT OF DISP.         0.208       AT NODE          7   DOF  2
   INSTANCE: CAP-1                                                                           
 LARGEST CORRECTION TO DISP.       -2.216E-04   AT NODE        218   DOF  2
   INSTANCE: CAP-1                                                                           
          THE FORCE     EQUILIBRIUM EQUATIONS HAVE CONVERGED

 ITERATION SUMMARY FOR THE INCREMENT:   2 TOTAL ITERATIONS, OF WHICH
   0 ARE SEVERE DISCONTINUITY ITERATIONS AND  2 ARE EQUILIBRIUM ITERATIONS.

 TIME INCREMENT COMPLETED  1.000E-03,  FRACTION OF STEP COMPLETED  0.996    
 STEP TIME COMPLETED       0.996    ,  TOTAL TIME COMPLETED        0.996    
  
     ASYNCHRONOUS OUTPUT DATABASE FRAME FLUSH STARTED
  


  INCREMENT   997 STARTS. ATTEMPT NUMBER  1, TIME INCREMENT  1.000E-03
  
     ASYNCHRONOUS TRACKING ELEMENT LOOP STARTED
  

  NUMBER OF EQUATIONS =     9434     NUMBER OF FLOATING PT. OPERATIONS =  3.47E+07

  USING THE DIRECT SOLVER WITH  14 PROCESSORS

     CHECK POINT   START OF SOLVER    

     CHECK POINT  END OF SOLVER       

       ELAPSED USER TIME (SEC)      =  0.25000    
       ELAPSED SYSTEM TIME (SEC)    =  7.00000E-02
       ELAPSED TOTAL CPU TIME (SEC) =  0.32000    
       ELAPSED WALLCLOCK TIME (SEC) =          0
  
     ASYNCHRONOUS TRACKING ELEMENT LOOP STARTED
  

               CONVERGENCE CHECKS FOR EQUILIBRIUM ITERATION     1

   MAX. PENETRATION ERROR 44.1597E-06  AT NODE CAP-1.157 OF CONTACT PAIR 
   (ASSEMBLY_CAP-1_TRANSITION-AND-PUMP-CONTACT,ASSEMBLY_PUMP-TUBE-1_PISTON-CONTA
   CT)
   MAX. CONTACT FORCE ERROR 37.3252      AT NODE CAP-1.157 OF CONTACT PAIR 
   (ASSEMBLY_CAP-1_TRANSITION-AND-PUMP-CONTACT,ASSEMBLY_PUMP-TUBE-1_PISTON-CONTA
   CT)
          THE CONTACT CONSTRAINTS HAVE CONVERGED.

 AVERAGE FORCE                      3.221E+03   TIME AVG. FORCE        459.    
 LARGEST RESIDUAL FORCE              36.8       AT NODE        152   DOF  2
   INSTANCE: CAP-1                                                                           
 LARGEST INCREMENT OF DISP.         0.164       AT NODE          7   DOF  2
   INSTANCE: CAP-1                                                                           
 LARGEST CORRECTION TO DISP.       -4.424E-02   AT NODE        197   DOF  2
   INSTANCE: CAP-1                                                                           
          FORCE     EQUILIBRIUM NOT ACHIEVED WITHIN TOLERANCE.

  NUMBER OF EQUATIONS =     9434     NUMBER OF FLOATING PT. OPERATIONS =  3.47E+07

  USING THE DIRECT SOLVER WITH  14 PROCESSORS

     CHECK POINT   START OF SOLVER    

     CHECK POINT  END OF SOLVER       

       ELAPSED USER TIME (SEC)      =  0.24000    
       ELAPSED SYSTEM TIME (SEC)    =  6.00000E-02
       ELAPSED TOTAL CPU TIME (SEC) =  0.30000    
       ELAPSED WALLCLOCK TIME (SEC) =          0
  
     ASYNCHRONOUS TRACKING ELEMENT LOOP STARTED
  

               CONVERGENCE CHECKS FOR EQUILIBRIUM ITERATION     2

   MAX. PENETRATION ERROR -311.352E-09   AT NODE CAP-1.31 OF CONTACT PAIR 
   (ASSEMBLY_CAP-1_TRANSITION-AND-PUMP-CONTACT,ASSEMBLY_TRANSITION-PIECE-1_END-C
   ONTACT)
   MAX. CONTACT FORCE ERROR -193.048E-03   AT NODE CAP-1.31 OF CONTACT PAIR 
   (ASSEMBLY_CAP-1_TRANSITION-AND-PUMP-CONTACT,ASSEMBLY_TRANSITION-PIECE-1_END-C
   ONTACT)
          THE CONTACT CONSTRAINTS HAVE CONVERGED.

 AVERAGE FORCE                      3.237E+03   TIME AVG. FORCE        459.    
 LARGEST RESIDUAL FORCE             0.116       AT NODE        152   DOF  2
   INSTANCE: CAP-1                                                                           
 LARGEST INCREMENT OF DISP.         0.164       AT NODE          7   DOF  2
   INSTANCE: CAP-1                                                                           
 LARGEST CORRECTION TO DISP.       -2.540E-04   AT NODE        157   DOF  2
   INSTANCE: CAP-1                                                                           
          THE FORCE     EQUILIBRIUM EQUATIONS HAVE CONVERGED

 ITERATION SUMMARY FOR THE INCREMENT:   2 TOTAL ITERATIONS, OF WHICH
   0 ARE SEVERE DISCONTINUITY ITERATIONS AND  2 ARE EQUILIBRIUM ITERATIONS.

 TIME INCREMENT COMPLETED  1.000E-03,  FRACTION OF STEP COMPLETED  0.997    
 STEP TIME COMPLETED       0.997    ,  TOTAL TIME COMPLETED        0.997    
  
     ASYNCHRONOUS OUTPUT DATABASE FRAME FLUSH STARTED
  


  INCREMENT   998 STARTS. ATTEMPT NUMBER  1, TIME INCREMENT  1.000E-03
  
     ASYNCHRONOUS TRACKING ELEMENT LOOP STARTED
  

  NUMBER OF EQUATIONS =     9434     NUMBER OF FLOATING PT. OPERATIONS =  3.47E+07

  USING THE DIRECT SOLVER WITH  14 PROCESSORS

     CHECK POINT   START OF SOLVER    

     CHECK POINT  END OF SOLVER       

       ELAPSED USER TIME (SEC)      =  0.34000    
       ELAPSED SYSTEM TIME (SEC)    =  8.00000E-02
       ELAPSED TOTAL CPU TIME (SEC) =  0.42000    
       ELAPSED WALLCLOCK TIME (SEC) =          0
  
     ASYNCHRONOUS TRACKING ELEMENT LOOP STARTED
  

               CONVERGENCE CHECKS FOR EQUILIBRIUM ITERATION     1

   MAX. PENETRATION ERROR 40.3924E-06  AT NODE CAP-1.31 OF CONTACT PAIR 
   (ASSEMBLY_CAP-1_TRANSITION-AND-PUMP-CONTACT,ASSEMBLY_TRANSITION-PIECE-1_END-C
   ONTACT)
   MAX. CONTACT FORCE ERROR 24.2982      AT NODE CAP-1.31 OF CONTACT PAIR 
   (ASSEMBLY_CAP-1_TRANSITION-AND-PUMP-CONTACT,ASSEMBLY_TRANSITION-PIECE-1_END-C
   ONTACT)
          THE CONTACT CONSTRAINTS HAVE CONVERGED.

 AVERAGE FORCE                      3.233E+03   TIME AVG. FORCE        461.    
 LARGEST RESIDUAL FORCE              38.9       AT NODE        959   DOF  1
   INSTANCE: PUMP-TUBE-1                                                                     
 LARGEST INCREMENT OF DISP.         0.123       AT NODE          7   DOF  2
   INSTANCE: CAP-1                                                                           
 LARGEST CORRECTION TO DISP.       -4.122E-02   AT NODE          7   DOF  2
   INSTANCE: CAP-1                                                                           
          FORCE     EQUILIBRIUM NOT ACHIEVED WITHIN TOLERANCE.

  NUMBER OF EQUATIONS =     9434     NUMBER OF FLOATING PT. OPERATIONS =  3.47E+07

  USING THE DIRECT SOLVER WITH  14 PROCESSORS

     CHECK POINT   START OF SOLVER    

     CHECK POINT  END OF SOLVER       

       ELAPSED USER TIME (SEC)      =  0.42000    
       ELAPSED SYSTEM TIME (SEC)    =  6.00000E-02
       ELAPSED TOTAL CPU TIME (SEC) =  0.48000    
       ELAPSED WALLCLOCK TIME (SEC) =          0
  
     ASYNCHRONOUS TRACKING ELEMENT LOOP STARTED
  

               CONVERGENCE CHECKS FOR EQUILIBRIUM ITERATION     2

   MAX. PENETRATION ERROR -47.2442E-09  AT NODE CAP-1.31 OF CONTACT PAIR 
   (ASSEMBLY_CAP-1_TRANSITION-AND-PUMP-CONTACT,ASSEMBLY_TRANSITION-PIECE-1_END-C
   ONTACT)
   MAX. CONTACT FORCE ERROR -28.4199E-03  AT NODE CAP-1.31 OF CONTACT PAIR 
   (ASSEMBLY_CAP-1_TRANSITION-AND-PUMP-CONTACT,ASSEMBLY_TRANSITION-PIECE-1_END-C
   ONTACT)
          THE CONTACT CONSTRAINTS HAVE CONVERGED.

 AVERAGE FORCE                      3.244E+03   TIME AVG. FORCE        461.    
 LARGEST RESIDUAL FORCE            -3.746E-02   AT NODE        218   DOF  1
   INSTANCE: CAP-1                                                                           
 LARGEST INCREMENT OF DISP.         0.123       AT NODE          7   DOF  2
   INSTANCE: CAP-1                                                                           
 LARGEST CORRECTION TO DISP.       -1.629E-04   AT NODE        218   DOF  2
   INSTANCE: CAP-1                                                                           
          THE FORCE     EQUILIBRIUM EQUATIONS HAVE CONVERGED

 ITERATION SUMMARY FOR THE INCREMENT:   2 TOTAL ITERATIONS, OF WHICH
   0 ARE SEVERE DISCONTINUITY ITERATIONS AND  2 ARE EQUILIBRIUM ITERATIONS.

 TIME INCREMENT COMPLETED  1.000E-03,  FRACTION OF STEP COMPLETED  0.998    
 STEP TIME COMPLETED       0.998    ,  TOTAL TIME COMPLETED        0.998    
  
     ASYNCHRONOUS OUTPUT DATABASE FRAME FLUSH STARTED
  


  INCREMENT   999 STARTS. ATTEMPT NUMBER  1, TIME INCREMENT  1.000E-03
  
     ASYNCHRONOUS TRACKING ELEMENT LOOP STARTED
  

  NUMBER OF EQUATIONS =     9434     NUMBER OF FLOATING PT. OPERATIONS =  3.47E+07

  USING THE DIRECT SOLVER WITH  14 PROCESSORS

     CHECK POINT   START OF SOLVER    

     CHECK POINT  END OF SOLVER       

       ELAPSED USER TIME (SEC)      =  0.25000    
       ELAPSED SYSTEM TIME (SEC)    =  0.10000    
       ELAPSED TOTAL CPU TIME (SEC) =  0.35000    
       ELAPSED WALLCLOCK TIME (SEC) =          0
  
     ASYNCHRONOUS TRACKING ELEMENT LOOP STARTED
  

               CONVERGENCE CHECKS FOR EQUILIBRIUM ITERATION     1

   MAX. PENETRATION ERROR 43.3069E-06  AT NODE CAP-1.31 OF CONTACT PAIR 
   (ASSEMBLY_CAP-1_TRANSITION-AND-PUMP-CONTACT,ASSEMBLY_TRANSITION-PIECE-1_END-C
   ONTACT)
   MAX. CONTACT FORCE ERROR 26.0178      AT NODE CAP-1.31 OF CONTACT PAIR 
   (ASSEMBLY_CAP-1_TRANSITION-AND-PUMP-CONTACT,ASSEMBLY_TRANSITION-PIECE-1_END-C
   ONTACT)
          THE CONTACT CONSTRAINTS HAVE CONVERGED.

 AVERAGE FORCE                      3.238E+03   TIME AVG. FORCE        464.    
 LARGEST RESIDUAL FORCE              31.9       AT NODE         22   DOF  1
   INSTANCE: PUMP-TUBE-1                                                                     
 LARGEST INCREMENT OF DISP.         7.995E-02   AT NODE          7   DOF  2
   INSTANCE: CAP-1                                                                           
 LARGEST CORRECTION TO DISP.       -4.280E-02   AT NODE          7   DOF  2
   INSTANCE: CAP-1                                                                           
          FORCE     EQUILIBRIUM NOT ACHIEVED WITHIN TOLERANCE.

  NUMBER OF EQUATIONS =     9434     NUMBER OF FLOATING PT. OPERATIONS =  3.47E+07

  USING THE DIRECT SOLVER WITH  14 PROCESSORS

     CHECK POINT   START OF SOLVER    

     CHECK POINT  END OF SOLVER       

       ELAPSED USER TIME (SEC)      =  0.27000    
       ELAPSED SYSTEM TIME (SEC)    =  6.00000E-02
       ELAPSED TOTAL CPU TIME (SEC) =  0.33000    
       ELAPSED WALLCLOCK TIME (SEC) =          0
  
     ASYNCHRONOUS TRACKING ELEMENT LOOP STARTED
  

               CONVERGENCE CHECKS FOR EQUILIBRIUM ITERATION     2

   MAX. PENETRATION ERROR 1.45568E-09 AT NODE CAP-1.31 OF CONTACT PAIR 
   (ASSEMBLY_CAP-1_TRANSITION-AND-PUMP-CONTACT,ASSEMBLY_TRANSITION-PIECE-1_END-C
   ONTACT)
   MAX. CONTACT FORCE ERROR 874.536E-06   AT NODE CAP-1.31 OF CONTACT PAIR 
   (ASSEMBLY_CAP-1_TRANSITION-AND-PUMP-CONTACT,ASSEMBLY_TRANSITION-PIECE-1_END-C
   ONTACT)
          THE CONTACT CONSTRAINTS HAVE CONVERGED.

 AVERAGE FORCE                      3.249E+03   TIME AVG. FORCE        464.    
 LARGEST RESIDUAL FORCE            -1.760E-02   AT NODE        218   DOF  1
   INSTANCE: CAP-1                                                                           
 LARGEST INCREMENT OF DISP.         8.002E-02   AT NODE          7   DOF  2
   INSTANCE: CAP-1                                                                           
 LARGEST CORRECTION TO DISP.       -9.567E-05   AT NODE        218   DOF  2
   INSTANCE: CAP-1                                                                           
          THE FORCE     EQUILIBRIUM EQUATIONS HAVE CONVERGED

 ITERATION SUMMARY FOR THE INCREMENT:   2 TOTAL ITERATIONS, OF WHICH
   0 ARE SEVERE DISCONTINUITY ITERATIONS AND  2 ARE EQUILIBRIUM ITERATIONS.

 TIME INCREMENT COMPLETED  1.000E-03,  FRACTION OF STEP COMPLETED  0.999    
 STEP TIME COMPLETED       0.999    ,  TOTAL TIME COMPLETED        0.999    
  
     ASYNCHRONOUS OUTPUT DATABASE FRAME FLUSH STARTED
  


  INCREMENT  1000 STARTS. ATTEMPT NUMBER  1, TIME INCREMENT  1.000E-03
  
     ASYNCHRONOUS TRACKING ELEMENT LOOP STARTED
  

  NUMBER OF EQUATIONS =     9434     NUMBER OF FLOATING PT. OPERATIONS =  3.47E+07

  USING THE DIRECT SOLVER WITH  14 PROCESSORS

     CHECK POINT   START OF SOLVER    

     CHECK POINT  END OF SOLVER       

       ELAPSED USER TIME (SEC)      =  0.24000    
       ELAPSED SYSTEM TIME (SEC)    =  9.00000E-02
       ELAPSED TOTAL CPU TIME (SEC) =  0.33000    
       ELAPSED WALLCLOCK TIME (SEC) =          0
  
     ASYNCHRONOUS TRACKING ELEMENT LOOP STARTED
  

               CONVERGENCE CHECKS FOR EQUILIBRIUM ITERATION     1

   MAX. PENETRATION ERROR 44.1406E-06  AT NODE CAP-1.31 OF CONTACT PAIR 
   (ASSEMBLY_CAP-1_TRANSITION-AND-PUMP-CONTACT,ASSEMBLY_TRANSITION-PIECE-1_END-C
   ONTACT)
   MAX. CONTACT FORCE ERROR 26.5028      AT NODE CAP-1.31 OF CONTACT PAIR 
   (ASSEMBLY_CAP-1_TRANSITION-AND-PUMP-CONTACT,ASSEMBLY_TRANSITION-PIECE-1_END-C
   ONTACT)
          THE CONTACT CONSTRAINTS HAVE CONVERGED.

 AVERAGE FORCE                      3.241E+03   TIME AVG. FORCE        467.    
 LARGEST RESIDUAL FORCE              14.7       AT NODE         11   DOF  1
   INSTANCE: PUMP-TUBE-1                                                                     
 LARGEST INCREMENT OF DISP.         3.622E-02   AT NODE          7   DOF  2
   INSTANCE: CAP-1                                                                           
 LARGEST CORRECTION TO DISP.       -4.380E-02   AT NODE          7   DOF  2
   INSTANCE: CAP-1                                                                           
          FORCE     EQUILIBRIUM NOT ACHIEVED WITHIN TOLERANCE.

  NUMBER OF EQUATIONS =     9434     NUMBER OF FLOATING PT. OPERATIONS =  3.47E+07

  USING THE DIRECT SOLVER WITH  14 PROCESSORS

     CHECK POINT   START OF SOLVER    

     CHECK POINT  END OF SOLVER       

       ELAPSED USER TIME (SEC)      =  0.23000    
       ELAPSED SYSTEM TIME (SEC)    =  9.00000E-02
       ELAPSED TOTAL CPU TIME (SEC) =  0.32000    
       ELAPSED WALLCLOCK TIME (SEC) =          0
  
     ASYNCHRONOUS TRACKING ELEMENT LOOP STARTED
  

               CONVERGENCE CHECKS FOR EQUILIBRIUM ITERATION     2

   MAX. PENETRATION ERROR 8.90838E-09 AT NODE CAP-1.31 OF CONTACT PAIR 
   (ASSEMBLY_CAP-1_TRANSITION-AND-PUMP-CONTACT,ASSEMBLY_TRANSITION-PIECE-1_END-C
   ONTACT)
   MAX. CONTACT FORCE ERROR 5.34875E-03 AT NODE CAP-1.31 OF CONTACT PAIR 
   (ASSEMBLY_CAP-1_TRANSITION-AND-PUMP-CONTACT,ASSEMBLY_TRANSITION-PIECE-1_END-C
   ONTACT)
          THE CONTACT CONSTRAINTS HAVE CONVERGED.

 AVERAGE FORCE                      3.253E+03   TIME AVG. FORCE        467.    
 LARGEST RESIDUAL FORCE            -9.558E-03   AT NODE         31   DOF  1
   INSTANCE: CAP-1                                                                           
 LARGEST INCREMENT OF DISP.         3.629E-02   AT NODE          7   DOF  2
   INSTANCE: CAP-1                                                                           
 LARGEST CORRECTION TO DISP.       -9.498E-05   AT NODE        311   DOF  2
   INSTANCE: CAP-1                                                                           
          THE FORCE     EQUILIBRIUM EQUATIONS HAVE CONVERGED

 ITERATION SUMMARY FOR THE INCREMENT:   2 TOTAL ITERATIONS, OF WHICH
   0 ARE SEVERE DISCONTINUITY ITERATIONS AND  2 ARE EQUILIBRIUM ITERATIONS.

 TIME INCREMENT COMPLETED  1.000E-03,  FRACTION OF STEP COMPLETED   1.00    
 STEP TIME COMPLETED        1.00    ,  TOTAL TIME COMPLETED         1.00    


          THE ANALYSIS HAS BEEN COMPLETED



     ANALYSIS SUMMARY:
     TOTAL OF       1000  INCREMENTS
                       0  CUTBACKS IN AUTOMATIC INCREMENTATION
                    1833  ITERATIONS INCLUDING CONTACT ITERATIONS IF PRESENT
                    1833  PASSES THROUGH THE EQUATION SOLVER OF WHICH 
                    1833  INVOLVE MATRIX DECOMPOSITION, INCLUDING
                       0  DECOMPOSITION(S) OF THE MASS MATRIX
                       1  REORDERING OF EQUATIONS TO MINIMIZE WAVEFRONT
                       0  ADDITIONAL RESIDUAL EVALUATIONS FOR LINE SEARCHES
                       0  ADDITIONAL OPERATOR EVALUATIONS FOR LINE SEARCHES
                       8  WARNING MESSAGES DURING USER INPUT PROCESSING
                       4  WARNING MESSAGES DURING ANALYSIS
                       0  ANALYSIS WARNINGS ARE NUMERICAL PROBLEM MESSAGES
                       4  ANALYSIS WARNINGS ARE NEGATIVE EIGENVALUE MESSAGES
                       0  ERROR MESSAGES



     JOB TIME SUMMARY
       USER TIME (SEC)      =   1676.1    
       SYSTEM TIME (SEC)    =   503.15    
       TOTAL CPU TIME (SEC) =   2179.2    
       WALLCLOCK TIME (SEC) =        653
