*Heading
** Job name: transition-slide Model name: Model-1
** Generated by: Abaqus/CAE 6.14-1
*Preprint, echo=NO, model=NO, history=NO, contact=NO
**
** PARTS
**
*Part, name=cap
*Node
      1,          25.,          73.
      2,          23.,          73.
      3,          23.,          25.
      4,          25.,          25.
      5,           0.,          73.
      6,          23.,          75.
      7,           0.,          75.
      8,           0.,           0.
      9,          12.,           0.
     10,          12.,          25.
     11,          23.,          69.
     12,          23.,          65.
     13,          23.,          61.
     14,          23.,          57.
     15,          23.,          53.
     16,          23.,          49.
     17,          23.,          45.
     18,          23.,          41.
     19,          23.,          37.
     20,          23.,          33.
** ... 501 like lines cut
*Element, type=CAX6M
 1,   1,   2,  11, 145, 146, 147
 2,  11,  32,   1, 148, 149, 147
 3,  32,  11,  12, 148, 150, 151
 4,  12,  31,  32, 152, 153, 151
 5,  31,  12,  13, 152, 154, 155
 6,  13,  30,  31, 156, 157, 155
 7,  30,  13,  14, 156, 158, 159
 8,  14,  29,  30, 160, 161, 159
 9,  29,  14,  15, 160, 162, 163
10,  15,  28,  29, 164, 165, 163
11,  28,  15,  16, 164, 166, 167
12,  16,  27,  28, 168, 169, 167
13,  27,  16,  17, 168, 170, 171
14,  17,  26,  27, 172, 173, 171
15,  26,  17,  18, 172, 174, 175
16,  18,  25,  26, 176, 177, 175
17,  25,  18,  19, 176, 178, 179
18,  19,  24,  25, 180, 181, 179
19,  24,  19,  20, 180, 182, 183
20,  20,  23,  24, 184, 185, 183
** ... 214 like lines cut
*Nset, nset=cap, generate
   1,  521,    1
*Elset, elset=cap, generate
   1,  234,    1
*Nset, nset=cap-centre
 7,
*Elset, elset=_piston-contact_S1, internal
 24,
*Elset, elset=_piston-contact_S2, internal
  38,  61,  62,  63,  64,  71,  84, 141, 143, 147, 149, 203
*Surface, type=ELEMENT, name=piston-contact
_piston-contact_S1, S1
_piston-contact_S2, S2
*Elset, elset=_transition-and-pump-contact_S2, internal, generate
  2,  24,   2
*Elset, elset=_transition-and-pump-contact_S1, internal
  26,  28,  30,  32,  34,  36, 233
*Elset, elset=_transition-and-pump-contact_S3, internal
 234,
*Surface, type=ELEMENT, name=transition-and-pump-contact
_transition-and-pump-contact_S2, S2
_transition-and-pump-contact_S1, S1
_transition-and-pump-contact_S3, S3
** Section: hdpe
*Solid Section, elset=cap, material=HDPE
,
*End Part
**  
*Part, name=piston
*Node
      1,          25.,          55.
      2,          25.,         125.
      3,          12.,         125.
      4,          12.,         100.
      5,           0.,         100.
      6,           0.,          35.
      7,           5.,          35.
      8,           5.,           0.
      9,          20.,           0.
     10,          20.,          50.
     11,          25.,   58.8888893
     12,          25.,   62.7777786
     13,          25.,   66.6666641
     14,          25.,   70.5555573
     15,          25.,   74.4444427
     16,          25.,   78.3333359
     17,          25.,   82.2222214
     18,          25.,   86.1111145
     19,          25.,          90.
     20,          25.,   93.8888855
** ... 734 like lines cut
*Element, type=CAX6M
  1, 157,  93, 148, 209, 210, 211
  2, 204, 134, 131, 212, 213, 214
  3, 190, 147, 184, 215, 216, 217
  4,  77,  75,   1, 218, 219, 220
  5, 121, 116,  41, 221, 222, 223
  6, 159, 112, 158, 224, 225, 226
  7,  86,  69,  70, 227, 228, 229
  8, 110, 105,  54, 230, 231, 232
  9, 113,  17,  93, 233, 234, 235
 10, 200, 188, 189, 236, 237, 238
 11, 119,  40, 116, 239, 240, 241
 12, 197, 186, 188, 242, 243, 244
 13, 120,  39, 119, 245, 246, 247
 14, 115, 114,  35, 248, 249, 250
 15, 115,  35,  36, 250, 251, 252
 16,  94,  93,  18, 253, 254, 255
 17,  95,  94,  19, 256, 257, 258
 18,  96,  95,  20, 259, 260, 261
 19,  97,  22,  91, 262, 263, 264
 20, 134,  34, 131, 265, 266, 213
** ... 319 like lines cut
*Nset, nset=piston, generate
   1,  754,    1
*Elset, elset=piston, generate
   1,  339,    1
*Elset, elset=_end-contact_S2, internal
  15,  25,  27,  34, 120, 150, 182, 183, 184, 186, 187
*Elset, elset=_end-contact_S3, internal
 27,
*Surface, type=ELEMENT, name=end-contact
_end-contact_S2, S2
_end-contact_S3, S3
*Elset, elset=_pump-contact_S1, internal
 25,
*Elset, elset=_pump-contact_S2, internal
  73, 104, 105, 106, 107, 108, 109, 110, 112, 116, 118, 119, 123, 127, 129, 145
 147,
*Surface, type=ELEMENT, name=pump-contact
_pump-contact_S1, S1
_pump-contact_S2, S2
** Section: aluminium
*Solid Section, elset=piston, material=aluminium
,
*End Part
**  
*Part, name=pump-tube
*Node
      1,          35.,         750.
      2,          25.,         750.
      3,          25.,           0.
      4,          35.,           0.
      5,          35.,         800.
      6,          25.,         800.
      7,    31.666666,         750.
      8,    28.333334,         750.
      9,          25.,    746.01062
     10,          25.,   742.021301
     11,          25.,   738.031921
     12,          25.,   734.042542
     13,          25.,   730.053162
     14,          25.,   726.063843
     15,          25.,   722.074463
     16,          25.,   718.085083
     17,          25.,   714.095764
     18,          25.,   710.106384
     19,          25.,   706.117004
     20,          25.,   702.127686
** ... 2801 like lines cut
*Element, type=CAX6M
   1,    1,    7,  411,  809,  810,  811
   2,  411,  384,    1,  812,  813,  811
   3,    7,    8,  412,  814,  815,  816
   4,  412,  411,    7,  817,  810,  816
   5,    8,    2,    9,  818,  819,  820
   6,    9,  412,    8,  821,  815,  820
   7,  384,  411,  413,  812,  822,  823
   8,  413,  383,  384,  824,  825,  823
   9,  411,  412,  414,  817,  826,  827
  10,  414,  413,  411,  828,  822,  827
  11,  412,    9,   10,  821,  829,  830
  12,   10,  414,  412,  831,  826,  830
  13,  383,  413,  415,  824,  832,  833
  14,  415,  382,  383,  834,  835,  833
  15,  413,  414,  416,  828,  836,  837
  16,  416,  415,  413,  838,  832,  837
  17,  414,   10,   11,  831,  839,  840
  18,   11,  416,  414,  841,  836,  840
  19,  382,  415,  417,  834,  842,  843
  20,  417,  381,  382,  844,  845,  843
** ... 1186 like lines cut
*Nset, nset=tube, generate
    1,  2821,     1
*Elset, elset=tube, generate
    1,  1206,     1
*Elset, elset=_transition-tie_S2, internal, generate
 1133,  1205,     6
*Elset, elset=_transition-tie_S1, internal, generate
 1202,  1206,     2
*Surface, type=ELEMENT, name=transition-tie
_transition-tie_S2, S2
_transition-tie_S1, S1
*Elset, elset=_piston-contact_S2, internal, generate
 1130,  1202,     6
*Surface, type=ELEMENT, name=piston-contact
_piston-contact_S2, S2
** Section: steel
*Solid Section, elset=tube, material=mild-steel
,
*End Part
**  
*Part, name=transition-piece
*Node
      1,           6.,         102.
      2,          40.,         102.
      3,          40.,         120.
      4,           6.,         120.
      5,          40.,          50.
      6,          35.,          50.
      7,          35.,           0.
      8,          40.,           0.
      9,          25.,          50.
     10,   9.77777767,         102.
     11,   13.5555553,         102.
     12,    17.333334,         102.
     13,   21.1111107,         102.
     14,   24.8888893,         102.
     15,    28.666666,         102.
     16,   32.4444427,         102.
     17,   36.2222214,         102.
     18,          40.,   105.599998
     19,          40.,   109.199997
     20,          40.,   112.800003
** ... 661 like lines cut
*Element, type=CAX6M
 1,   1,  10,  85, 191, 192, 193
 2,  85,  33,   1, 194, 195, 193
 3,  10,  11,  86, 196, 197, 198
 4,  86,  85,  10, 199, 192, 198
 5,  11,  12,  87, 200, 201, 202
 6,  87,  86,  11, 203, 197, 202
 7,  12,  13,  88, 204, 205, 206
 8,  88,  87,  12, 207, 201, 206
 9,  13,  14,  89, 208, 209, 210
10,  89,  88,  13, 211, 205, 210
11,  14,  15,  90, 212, 213, 214
12,  90,  89,  14, 215, 209, 214
13,  15,  16,  91, 216, 217, 218
14,  91,  90,  15, 219, 213, 218
15,  16,  17,  92, 220, 221, 222
16,  92,  91,  16, 223, 217, 222
17,  17,   2,  18, 224, 225, 226
18,  18,  92,  17, 227, 221, 226
19,  33,  85,  93, 194, 228, 229
20,  93,  32,  33, 230, 231, 229
** ... 282 like lines cut
*Nset, nset=transition-piece, generate
   1,  681,    1
*Elset, elset=transition-piece, generate
   1,  302,    1
*Elset, elset=_tube-tie_S2, internal
  91,  93,  95,  97,  99, 101, 103, 105, 107, 109, 111, 113, 115, 152, 212, 213
*Surface, type=ELEMENT, name=tube-tie
_tube-tie_S2, S2
*Elset, elset=_end-contact_S2, internal
 119, 123, 125, 132, 134, 160, 164, 168, 181, 190, 193, 199, 205, 211
*Surface, type=ELEMENT, name=end-contact
_end-contact_S2, S2
** Section: steel
*Solid Section, elset=transition-piece, material=mild-steel
,
*End Part
**  
**
** ASSEMBLY
**
*Assembly, name=Assembly
**  
*Instance, name=pump-tube-1, part=pump-tube
          0.,        -800.,           0.
*End Instance
**  
*Instance, name=transition-piece-1, part=transition-piece
          0.,         -50.,           0.
*End Instance
**  
*Instance, name=cap-1, part=cap
          0.,         -75.,           0.
*End Instance
**  
*Instance, name=piston-1, part=piston
          0.,        -175.,           0.
*End Instance
**  
*Nset, nset=fixed, instance=pump-tube-1
    3,    4,  196,  197, 2684, 2688, 2691
*Nset, nset=fixed, instance=transition-piece-1
   2,   3,   4,  18,  19,  20,  21,  22,  23,  24,  25,  26,  27,  28,  29, 225
 253, 281, 309, 314, 318, 321, 324, 327, 330, 333, 336, 337, 339
*Elset, elset=fixed, instance=pump-tube-1, generate
 1124,  1128,     2
*Elset, elset=fixed, instance=transition-piece-1
 17, 35, 53, 71, 74, 76, 78, 80, 82, 84, 86, 88, 89, 90
*Nset, nset=piston-and-cap, instance=cap-1, generate
   1,  521,    1
*Nset, nset=piston-and-cap, instance=piston-1, generate
   1,  754,    1
*Elset, elset=piston-and-cap, instance=cap-1, generate
   1,  234,    1
*Elset, elset=piston-and-cap, instance=piston-1, generate
   1,  339,    1
*Nset, nset=piston-centre, instance=cap-1
   5,   7,   8,  43,  44,  45,  46,  47,  48,  49,  50,  51,  52,  53,  54,  55
  56,  57,  58,  59, 198, 225, 241, 270, 287, 353, 388, 389, 392, 396, 399, 403
 407, 411, 421, 425, 430, 434, 484
*Nset, nset=piston-centre, instance=piston-1
   5,   6,  37,  38,  39,  40,  41,  42,  43,  44,  45,  46,  47,  48,  49,  50
  51, 302, 557, 562, 563, 564, 565, 566, 572, 576, 577, 580, 587, 591, 595, 598
 608,
*Elset, elset=piston-centre, instance=cap-1
  26,  39,  45,  55,  62,  92, 114, 115, 117, 119, 121, 123, 125, 127, 131, 133
 135, 138, 173
*Elset, elset=piston-centre, instance=piston-1
  34, 152, 154, 155, 156, 157, 158, 161, 163, 164, 166, 170, 172, 174, 176, 180
*Nset, nset=piston-centre-actual, instance=cap-1
   5,   7,   8,  43,  44,  45,  46,  47,  48,  49,  50,  51,  52,  53,  54,  55
  56,  57,  58,  59, 198, 225, 241, 270, 287, 353, 388, 389, 392, 396, 399, 403
 407, 411, 421, 425, 430, 434, 484
*Nset, nset=piston-centre-actual, instance=piston-1
   5,   6,  37,  38,  39,  40,  41,  42,  43,  44,  45,  46,  47,  48,  49,  50
  51, 302, 557, 562, 563, 564, 565, 566, 572, 576, 577, 580, 587, 591, 595, 598
 608,
*Elset, elset=piston-centre-actual, instance=cap-1
  26,  39,  45,  55,  62,  92, 114, 115, 117, 119, 121, 123, 125, 127, 131, 133
 135, 138, 173
*Elset, elset=piston-centre-actual, instance=piston-1
  34, 152, 154, 155, 156, 157, 158, 161, 163, 164, 166, 170, 172, 174, 176, 180
*Elset, elset=_cap-front_S1, internal, instance=cap-1
  26,  28,  30,  32,  34,  36, 233
*Elset, elset=_cap-front_S3, internal, instance=cap-1
 234,
*Surface, type=ELEMENT, name=cap-front
_cap-front_S1, S1
_cap-front_S3, S3
*Elset, elset=_piston-back_S2, internal, instance=piston-1
   4,   7,  49,  57,  58,  60,  62,  68,  74,  79,  81,  82,  85,  87,  89,  90
  96,  98, 100, 130, 131, 132, 133, 134, 139, 141, 234
*Elset, elset=_piston-back_S1, internal, instance=piston-1
 57,
*Elset, elset=_piston-back_S3, internal, instance=piston-1
 60,
*Surface, type=ELEMENT, name=piston-back
_piston-back_S2, S2
_piston-back_S1, S1
_piston-back_S3, S3
*Elset, elset=_tube-inner_S2, internal, instance=pump-tube-1
    5,   11,   17,   23,   29,   35,   41,   47,   53,   59,   65,   71,   77,   83,   89,   95
  101,  107,  113,  119,  125,  131,  137,  143,  149,  155,  161,  167,  173,  179,  185,  191
  197,  203,  209,  215,  221,  227,  233,  239,  245,  251,  257,  263,  269,  275,  281,  287
  293,  299,  305,  311,  317,  323,  329,  335,  341,  347,  353,  359,  365,  371,  377,  383
  389,  395,  401,  407,  413,  419,  425,  431,  437,  443,  449,  455,  461,  467,  473,  479
  485,  491,  497,  503,  509,  515,  521,  527,  533,  539,  545,  551,  557,  563,  569,  575
  581,  587,  593,  599,  605,  611,  617,  623,  629,  635,  641,  647,  653,  659,  665,  671
  677,  683,  689,  695,  701,  707,  713,  719,  725,  731,  737,  743,  749,  755,  761,  767
  773,  779,  785,  791,  797,  803,  809,  815,  821,  827,  833,  839,  845,  851,  857,  863
  869,  875,  881,  887,  893,  899,  905,  911,  917,  923,  929,  935,  941,  947,  953,  959
  965,  971,  977,  983,  989,  995, 1001, 1007, 1013, 1019, 1025, 1031, 1037, 1043, 1049, 1055
 1061, 1067, 1073, 1079, 1085, 1091, 1097, 1103, 1109, 1115, 1121, 1127, 1130, 1136, 1142, 1148
 1154, 1160, 1166, 1172, 1178, 1184, 1190, 1196, 1202
*Surface, type=ELEMENT, name=tube-inner
_tube-inner_S2, S2
** Constraint: cap-to-piston
*Tie, name=cap-to-piston, adjust=yes
cap-1.piston-contact, piston-1.end-contact
** Constraint: transition-fitting
*Tie, name=transition-fitting, adjust=yes
transition-piece-1.tube-tie, pump-tube-1.transition-tie
*End Assembly
*Amplitude, name=front-pressure
             0.,              1.,              1.,              1.
*Amplitude, name=pressure
             0.,              1.,              1.,              1.
** 
** MATERIALS
** 
*Material, name=HDPE
*Deformation Plasticity
1630.,  0.46,  14.6,  4.26, 0.342
*Density
 9.5e-10,
*Material, name=aluminium
*Density
 2.7e-09,
*Elastic
68300., 0.34
*Material, name=mild-steel
*Density
 8e-09,
*Elastic
200000., 0.33
** 
** INTERACTION PROPERTIES
** 
*Surface Interaction, name=HDPE-on-steel
1.,
*Friction, slip tolerance=0.005
 0.25,
*Surface Behavior, pressure-overclosure=HARD
*Surface Interaction, name=aluminium-on-steel
1.,
*Friction, slip tolerance=0.005
 0.5,
*Surface Behavior, pressure-overclosure=HARD
*Time Points, name=measure-values, GENERATE
0., 0.003, 3e-05
** 
** BOUNDARY CONDITIONS
** 
** Name: fix Type: Displacement/Rotation
*Boundary
fixed, 1, 1
fixed, 2, 2
** Name: piston-centre Type: Displacement/Rotation
*Boundary
piston-centre-actual, 1, 1
** 
** PREDEFINED FIELDS
** 
** Name: contact-velocity   Type: Velocity
*Initial Conditions, type=VELOCITY
piston-and-cap, 1, 0.
piston-and-cap, 2, 20000.
** 
** INTERACTIONS
** 
** Interaction: cap-on-tube
*Contact Pair, interaction=HDPE-on-steel, type=SURFACE TO SURFACE
cap-1.transition-and-pump-contact, pump-tube-1.piston-contact
** Interaction: cap-transition
*Contact Pair, interaction=HDPE-on-steel, type=SURFACE TO SURFACE
cap-1.transition-and-pump-contact, transition-piece-1.end-contact
** Interaction: piston-on-tube
*Contact Pair, interaction=aluminium-on-steel, type=SURFACE TO SURFACE
piston-1.pump-contact, tube-inner
** ----------------------------------------------------------------
** 
** STEP: taper-slide
** 
*Step, name=taper-slide, nlgeom=YES, inc=10000
*Dynamic
0.003,0.003,3e-08
** 
** LOADS
** 
** Name: back-pressure   Type: Pressure
*Dsload, amplitude=pressure
piston-back, P, 1.
** Name: front-pressure   Type: Pressure
*Dsload, amplitude=front-pressure
cap-front, P, 0.01
** 
** OUTPUT REQUESTS
** 
*Restart, write, frequency=0
** 
** FIELD OUTPUT: F-Output-1
** 
*Output, field, variable=PRESELECT, frequency=1
** 
** HISTORY OUTPUT: H-Output-1
** 
*Output, history, time points=measure-values
*Energy Output
ALLPD, 
*Contact Output
CFT2, 
** 
** HISTORY OUTPUT: H-Output-2
** 
*Node Output, nset=cap-1.cap-centre
U2, V2
*End Step
