1

   Abaqus 6.14-1                                  Date 01-Oct-2021   Time 12:24:13
   For use at UNIVERSITY OF CAPE TOWN under license from Dassault Systemes or its subsidiary.

                                                                                 
                                                                                 
 STEP    1     INCREMENT     1     STEP TIME    0.00    


                        S T E P       1     S T A T I C   A N A L Y S I S


                                                                                          

     AUTOMATIC TIME CONTROL WITH -
          A SUGGESTED INITIAL TIME INCREMENT OF                1.000E-02
          AND A TOTAL TIME PERIOD OF                            1.00    
          THE MINIMUM TIME INCREMENT ALLOWED IS                1.000E-08
          THE MAXIMUM TIME INCREMENT ALLOWED IS                1.000E-02

     LINEAR EQUATION SOLVER TYPE         DIRECT SPARSE

 CONVERGENCE TOLERANCE PARAMETERS FOR FORCE    
     CRITERION FOR RESIDUAL FORCE     FOR A NONLINEAR PROBLEM          5.000E-03
     CRITERION FOR DISP.    CORRECTION IN A NONLINEAR PROBLEM          1.000E-02
     INITIAL VALUE OF TIME AVERAGE FORCE                               1.000E-02
     AVERAGE FORCE     IS TIME AVERAGE FORCE    
     ALTERNATE CRIT. FOR RESIDUAL FORCE     FOR A NONLINEAR PROBLEM    2.000E-02
     CRITERION FOR ZERO FORCE     RELATIVE TO TIME AVRG. FORCE         1.000E-05
     CRITERION FOR RESIDUAL FORCE     WHEN THERE IS ZERO FLUX          1.000E-05
     CRITERION FOR DISP.    CORRECTION WHEN THERE IS ZERO FLUX         1.000E-03
     CRITERION FOR RESIDUAL FORCE     FOR A LINEAR INCREMENT           1.000E-08
     FIELD CONVERSION RATIO                                             1.00    
     CRITERION FOR ZERO FORCE     REL. TO TIME AVRG. MAX. FORCE        1.000E-05
     CRITERION FOR ZERO DISP.    RELATIVE TO CHARACTERISTIC LENGTH     1.000E-08

     VOLUMETRIC STRAIN COMPATIBILITY TOLERANCE FOR HYBRID SOLIDS       1.000E-05
     AXIAL STRAIN COMPATIBILITY TOLERANCE FOR HYBRID BEAMS             1.000E-05
     TRANS. SHEAR STRAIN COMPATIBILITY TOLERANCE FOR HYBRID BEAMS      1.000E-05
     SOFT CONTACT CONSTRAINT COMPATIBILITY TOLERANCE FOR P>P0          5.000E-03
     SOFT CONTACT CONSTRAINT COMPATIBILITY TOLERANCE FOR P=0.0         0.100    
     CONTACT FORCE ERROR TOLERANCE FOR CONVERT SDI=YES                 1.00    
     DISPLACEMENT COMPATIBILITY TOLERANCE FOR DCOUP ELEMENTS           1.000E-05
     ROTATION COMPATIBILITY TOLERANCE FOR DCOUP ELEMENTS               1.000E-05

 EQUILIBRIUM WILL BE CHECKED FOR SEVERE DISCONTINUITY ITERATIONS

 TIME INCREMENTATION CONTROL PARAMETERS:
     FIRST EQUILIBRIUM ITERATION FOR CONSECUTIVE DIVERGENCE CHECK              4
     EQUILIBRIUM ITERATION AT WHICH LOG. CONVERGENCE RATE CHECK BEGINS         8
     EQUILIBRIUM ITERATION AFTER WHICH ALTERNATE RESIDUAL IS USED              9
     MAXIMUM EQUILIBRIUM ITERATIONS ALLOWED                                   16
     EQUILIBRIUM ITERATION COUNT FOR CUT-BACK IN NEXT INCREMENT               10
     MAXIMUM EQUILIB. ITERS IN TWO INCREMENTS FOR TIME INCREMENT INCREASE      4
     MAXIMUM ITERATIONS FOR SEVERE DISCONTINUITIES                            50
     MAXIMUM CUT-BACKS ALLOWED IN AN INCREMENT                                 5
     MAXIMUM DISCON. ITERS IN TWO INCREMENTS FOR TIME INCREMENT INCREASE      50
     MAXIMUM CONTACT AUGMENTATIONS FOR *SURFACE BEHAVIOR,AUGMENTED LAGRANGE   50
     CUT-BACK FACTOR AFTER DIVERGENCE                                 0.2500    
     CUT-BACK FACTOR FOR TOO SLOW CONVERGENCE                         0.5000    
     CUT-BACK FACTOR AFTER TOO MANY EQUILIBRIUM ITERATIONS            0.7500    
     CUT-BACK FACTOR AFTER TOO MANY SEVERE DISCONTINUITY ITERATIONS   0.2500    
     CUT-BACK FACTOR AFTER PROBLEMS IN ELEMENT ASSEMBLY               0.2500    
     INCREASE FACTOR AFTER TWO INCREMENTS THAT CONVERGE QUICKLY        1.500    
     MAX. TIME INCREMENT INCREASE FACTOR ALLOWED                       1.500    
     MAX. TIME INCREMENT INCREASE FACTOR ALLOWED (DYNAMICS)            1.250    
     MAX. TIME INCREMENT INCREASE FACTOR ALLOWED (DIFFUSION)           2.000    
     MINIMUM TIME INCREMENT RATIO FOR EXTRAPOLATION TO OCCUR          0.1000    
     MAX. RATIO OF TIME INCREMENT TO STABILITY LIMIT                   1.000    
     FRACTION OF STABILITY LIMIT FOR NEW TIME INCREMENT               0.9500    
     TIME INCREMENT INCREASE FACTOR BEFORE A TIME POINT                1.000    

 CONTACT CONTROLS APPLIED TO ALL CONTACT PAIRS:
     GLOBAL STABILIZATION CONTROL IS NOT USED
     RELATIVE PENETRATION TOLERANCE FOR AUGMENTED LAGRANGE CONTACT:
          FINITE-SLIDING SURFACE-TO-SURFACE                            5.000E-02
          OTHERWISE                                                    1.000E-03

          PRINT OF INCREMENT NUMBER, TIME, ETC., EVERY    1  INCREMENTS

     THE MAXIMUM NUMBER OF INCREMENTS IN THIS STEP IS                 1000000

          LARGE DISPLACEMENT THEORY WILL BE USED

          UNSYMMETRIC MATRIX STORAGE AND SOLUTION WILL BE USED

     LINEAR EXTRAPOLATION WILL BE USED

     CHARACTERISTIC ELEMENT LENGTH      3.76    

     DETAILS REGARDING ACTUAL SOLUTION WAVEFRONT REQUESTED

     DETAILED OUTPUT OF DIAGNOSTICS TO DATABASE REQUESTED

     PRINT OF INCREMENT NUMBER, TIME, ETC., TO THE MESSAGE FILE EVERY     1  INCREMENTS

     ELEMENT OPERATIONS WILL BE CARRIED OUT IN PARALLEL USING  10 PROCESSORS

     PARALLEL CONTACT TRACKING ENABLED


     COLLECTING MODEL CONSTRAINT INFORMATION FOR OVERCONSTRAINT CHECKS

     COLLECTING STEP CONSTRAINT INFORMATION FOR OVERCONSTRAINT CHECKS
  
     ASYNCHRONOUS OUTPUT DATABASE FRAME FLUSH STARTED
  


  INCREMENT     1 STARTS. ATTEMPT NUMBER  1, TIME INCREMENT  1.000E-02
  
     ASYNCHRONOUS TRACKING ELEMENT LOOP STARTED
  
 
     INITIAL ELEMENT LOAD BALANCE
        COMPUTE NODE   1   PROCESS    NUMBER OF ELEMENTS
                              1            225
                              2            225
                              3            230
                              4            225
                              5            225
                              6            225
                              7            225
                              8            225
                              9            225
                             10            225

  NUMBER OF EQUATIONS =     9434     NUMBER OF FLOATING PT. OPERATIONS =  3.05E+07

  USING THE DIRECT SOLVER WITH  10 PROCESSORS

     CHECK POINT   START OF SOLVER    

     CHECK POINT  END OF SOLVER       

       ELAPSED USER TIME (SEC)      =  0.20000    
       ELAPSED SYSTEM TIME (SEC)    =  9.00000E-02
       ELAPSED TOTAL CPU TIME (SEC) =  0.29000    
       ELAPSED WALLCLOCK TIME (SEC) =          0
  
     ASYNCHRONOUS TRACKING ELEMENT LOOP STARTED
  

                   17 SEVERE DISCONTINUITIES OCCURRED DURING THIS ITERATION.
                   17 POINTS CHANGED FROM CLOSED TO OPEN

               CONVERGENCE CHECKS FOR SEVERE DISCONTINUITY ITERATION     1

   MAX. PENETRATION ERROR -1.37161E-09 AT NODE PISTON-1.1 OF CONTACT PAIR 
   (ASSEMBLY_PISTON-1_PUMP-CONTACT,ASSEMBLY_TUBE-INNER)
   MAX. CONTACT FORCE ERROR -21.4258      AT NODE PISTON-1.27 OF CONTACT PAIR 
   (ASSEMBLY_PISTON-1_PUMP-CONTACT,ASSEMBLY_TUBE-INNER)
          THE CONTACT CONSTRAINT ERRORS ARE WITHIN THE TOLERANCES.

 AVERAGE FORCE                       167.       TIME AVG. FORCE        167.    
 LARGEST RESIDUAL FORCE             1.704E+03   AT NODE        408   DOF  2
   INSTANCE: PISTON-1                                                                        
 LARGEST INCREMENT OF DISP.         1.890E-02   AT NODE          8   DOF  2
   INSTANCE: PISTON-1                                                                        
 LARGEST CORRECTION TO DISP.        1.890E-02   AT NODE          8   DOF  2
   INSTANCE: PISTON-1                                                                        
          FORCE     EQUILIBRIUM NOT ACHIEVED WITHIN TOLERANCE.

  NUMBER OF EQUATIONS =     9434     NUMBER OF FLOATING PT. OPERATIONS =  3.21E+07

  USING THE DIRECT SOLVER WITH  10 PROCESSORS

     CHECK POINT   START OF SOLVER    

     CHECK POINT  END OF SOLVER       

       ELAPSED USER TIME (SEC)      =  0.23000    
       ELAPSED SYSTEM TIME (SEC)    =  4.00000E-02
       ELAPSED TOTAL CPU TIME (SEC) =  0.27000    
       ELAPSED WALLCLOCK TIME (SEC) =          1
  
     ASYNCHRONOUS TRACKING ELEMENT LOOP STARTED
  

                   30 SEVERE DISCONTINUITIES OCCURRED DURING THIS ITERATION.
                   30 POINTS CHANGED FROM CLOSED TO OPEN

               CONVERGENCE CHECKS FOR SEVERE DISCONTINUITY ITERATION     2

   MAX. PENETRATION ERROR 468.824E-09   AT NODE PISTON-1.1 OF CONTACT PAIR 
   (ASSEMBLY_PISTON-1_PUMP-CONTACT,ASSEMBLY_TUBE-INNER)
   MAX. CONTACT FORCE ERROR -37.6748      AT NODE PISTON-1.18 OF CONTACT PAIR 
   (ASSEMBLY_PISTON-1_PUMP-CONTACT,ASSEMBLY_TUBE-INNER)
          THE ESTIMATED CONTACT FORCE ERROR IS OUTSIDE OF CONVERGENCE TOLERANCES.

 AVERAGE FORCE                       25.4       TIME AVG. FORCE        25.4    
 LARGEST RESIDUAL FORCE              446.       AT NODE        408   DOF  2
   INSTANCE: PISTON-1                                                                        
 LARGEST INCREMENT OF DISP.         1.890E-02   AT NODE          8   DOF  2
   INSTANCE: PISTON-1                                                                        
 LARGEST CORRECTION TO DISP.        1.537E-02   AT NODE        149   DOF  2
   INSTANCE: CAP-1                                                                           
          FORCE     EQUILIBRIUM NOT ACHIEVED WITHIN TOLERANCE.

  NUMBER OF EQUATIONS =     9434     NUMBER OF FLOATING PT. OPERATIONS =  2.99E+07

  USING THE DIRECT SOLVER WITH  10 PROCESSORS

     CHECK POINT   START OF SOLVER    

     CHECK POINT  END OF SOLVER       

       ELAPSED USER TIME (SEC)      =  0.19000    
       ELAPSED SYSTEM TIME (SEC)    =  8.00000E-02
       ELAPSED TOTAL CPU TIME (SEC) =  0.27000    
       ELAPSED WALLCLOCK TIME (SEC) =          0
  
     ASYNCHRONOUS TRACKING ELEMENT LOOP STARTED
  

                    7 SEVERE DISCONTINUITIES OCCURRED DURING THIS ITERATION.
                    4 POINTS CHANGED FROM CLOSED TO OPEN
                    3 POINTS CHANGED FROM STICKING TO SLIPPING

               CONVERGENCE CHECKS FOR SEVERE DISCONTINUITY ITERATION     3

   MAX. PENETRATION ERROR 22.7111E-09  AT NODE PISTON-1.408 OF CONTACT PAIR 
   (ASSEMBLY_PISTON-1_PUMP-CONTACT,ASSEMBLY_TUBE-INNER)
   MAX. CONTACT FORCE ERROR -1.17551     AT NODE PISTON-1.13 OF CONTACT PAIR 
   (ASSEMBLY_PISTON-1_PUMP-CONTACT,ASSEMBLY_TUBE-INNER)
          THE ESTIMATED CONTACT FORCE ERROR IS OUTSIDE OF CONVERGENCE TOLERANCES.

 AVERAGE FORCE                      0.503       TIME AVG. FORCE       0.503    
 LARGEST RESIDUAL FORCE             -12.9       AT NODE         25   DOF  2
   INSTANCE: PUMP-TUBE-1                                                                     
 LARGEST INCREMENT OF DISP.         1.890E-02   AT NODE          8   DOF  2
   INSTANCE: PISTON-1                                                                        
 LARGEST CORRECTION TO DISP.        2.273E-03   AT NODE          7   DOF  2
   INSTANCE: CAP-1                                                                           
          FORCE     EQUILIBRIUM NOT ACHIEVED WITHIN TOLERANCE.

  NUMBER OF EQUATIONS =     9434     NUMBER OF FLOATING PT. OPERATIONS =  2.98E+07

  USING THE DIRECT SOLVER WITH  10 PROCESSORS

     CHECK POINT   START OF SOLVER    

     CHECK POINT  END OF SOLVER       

       ELAPSED USER TIME (SEC)      =  0.21000    
       ELAPSED SYSTEM TIME (SEC)    =  5.00000E-02
       ELAPSED TOTAL CPU TIME (SEC) =  0.26000    
       ELAPSED WALLCLOCK TIME (SEC) =          0
  
     ASYNCHRONOUS TRACKING ELEMENT LOOP STARTED
  

                   58 SEVERE DISCONTINUITIES OCCURRED DURING THIS ITERATION.
                   44 POINTS CHANGED FROM OPEN TO CLOSED
                   14 POINTS CHANGED FROM STICKING TO SLIPPING

               CONVERGENCE CHECKS FOR SEVERE DISCONTINUITY ITERATION     4

   MAX. PENETRATION ERROR 309.297E-09   AT NODE CAP-1.173 OF CONTACT PAIR 
   (ASSEMBLY_CAP-1_TRANSITION-AND-PUMP-CONTACT,ASSEMBLY_PUMP-TUBE-1_PISTON-CONTA
   CT)
   MAX. CONTACT FORCE ERROR 310.258E-03   AT NODE CAP-1.173 OF CONTACT PAIR 
   (ASSEMBLY_CAP-1_TRANSITION-AND-PUMP-CONTACT,ASSEMBLY_PUMP-TUBE-1_PISTON-CONTA
   CT)
          THE ESTIMATED CONTACT FORCE ERROR IS OUTSIDE OF CONVERGENCE TOLERANCES.

 AVERAGE FORCE                      3.522E-03   TIME AVG. FORCE       3.522E-03
 LARGEST RESIDUAL FORCE            -4.931E-03   AT NODE         25   DOF  2
   INSTANCE: PUMP-TUBE-1                                                                     
 LARGEST INCREMENT OF DISP.         1.891E-02   AT NODE         69   DOF  2
   INSTANCE: CAP-1                                                                           
 LARGEST CORRECTION TO DISP.        4.440E-05   AT NODE        193   DOF  2
   INSTANCE: CAP-1                                                                           
          FORCE     EQUILIBRIUM NOT ACHIEVED WITHIN TOLERANCE.

  NUMBER OF EQUATIONS =     9434     NUMBER OF FLOATING PT. OPERATIONS =  3.21E+07

  USING THE DIRECT SOLVER WITH  10 PROCESSORS

     CHECK POINT   START OF SOLVER    

     CHECK POINT  END OF SOLVER       

       ELAPSED USER TIME (SEC)      =  0.19000    
       ELAPSED SYSTEM TIME (SEC)    =  7.00000E-02
       ELAPSED TOTAL CPU TIME (SEC) =  0.26000    
       ELAPSED WALLCLOCK TIME (SEC) =          0
  
     ASYNCHRONOUS TRACKING ELEMENT LOOP STARTED
  

                    1 SEVERE DISCONTINUITIES OCCURRED DURING THIS ITERATION.
                    1 POINTS CHANGED FROM CLOSED TO OPEN

               CONVERGENCE CHECKS FOR SEVERE DISCONTINUITY ITERATION     5

   MAX. PENETRATION ERROR -3.69291E-15 AT NODE PISTON-1.510 OF CONTACT PAIR 
   (ASSEMBLY_PISTON-1_PUMP-CONTACT,ASSEMBLY_TUBE-INNER)
   MAX. CONTACT FORCE ERROR -19.6119E-03  AT NODE CAP-1.29 OF CONTACT PAIR 
   (ASSEMBLY_CAP-1_TRANSITION-AND-PUMP-CONTACT,ASSEMBLY_PUMP-TUBE-1_PISTON-CONTA
   CT)
          THE ESTIMATED CONTACT FORCE ERROR IS OUTSIDE OF CONVERGENCE TOLERANCES.

 AVERAGE FORCE                      4.431E-03   TIME AVG. FORCE       4.431E-03
 LARGEST RESIDUAL FORCE            -1.310E-02   AT NODE         29   DOF  1
   INSTANCE: CAP-1                                                                           
 LARGEST INCREMENT OF DISP.         1.891E-02   AT NODE         69   DOF  2
   INSTANCE: CAP-1                                                                           
 LARGEST CORRECTION TO DISP.       -3.736E-07   AT NODE        173   DOF  1
   INSTANCE: CAP-1                                                                           
          FORCE     EQUILIBRIUM NOT ACHIEVED WITHIN TOLERANCE.

  NUMBER OF EQUATIONS =     9434     NUMBER OF FLOATING PT. OPERATIONS =  3.21E+07

  USING THE DIRECT SOLVER WITH  10 PROCESSORS

     CHECK POINT   START OF SOLVER    

     CHECK POINT  END OF SOLVER       

       ELAPSED USER TIME (SEC)      =  0.17000    
       ELAPSED SYSTEM TIME (SEC)    =  0.10000    
       ELAPSED TOTAL CPU TIME (SEC) =  0.27000    
       ELAPSED WALLCLOCK TIME (SEC) =          0
  
     ASYNCHRONOUS TRACKING ELEMENT LOOP STARTED
  

               CONVERGENCE CHECKS FOR EQUILIBRIUM ITERATION     1

   MAX. PENETRATION ERROR -4.23003E-15 AT NODE PISTON-1.520 OF CONTACT PAIR 
   (ASSEMBLY_PISTON-1_PUMP-CONTACT,ASSEMBLY_TUBE-INNER)
   MAX. CONTACT FORCE ERROR -29.9805E-09  AT NODE PISTON-1.520 OF CONTACT PAIR 
   (ASSEMBLY_PISTON-1_PUMP-CONTACT,ASSEMBLY_TUBE-INNER)
          THE CONTACT CONSTRAINTS HAVE CONVERGED.

 AVERAGE FORCE                      4.460E-03   TIME AVG. FORCE       4.460E-03
 LARGEST RESIDUAL FORCE             8.714E-08   AT NODE       2815   DOF  1
   INSTANCE: PUMP-TUBE-1                                                                     
 LARGEST INCREMENT OF DISP.         1.891E-02   AT NODE         69   DOF  2
   INSTANCE: CAP-1                                                                           
 LARGEST CORRECTION TO DISP.       -7.271E-08   AT NODE         29   DOF  1
   INSTANCE: CAP-1                                                                           
          THE FORCE     EQUILIBRIUM EQUATIONS HAVE CONVERGED

 ITERATION SUMMARY FOR THE INCREMENT:   6 TOTAL ITERATIONS, OF WHICH
   5 ARE SEVERE DISCONTINUITY ITERATIONS AND  1 ARE EQUILIBRIUM ITERATIONS.

 TIME INCREMENT COMPLETED  1.000E-02,  FRACTION OF STEP COMPLETED  1.000E-02
 STEP TIME COMPLETED       1.000E-02,  TOTAL TIME COMPLETED        1.000E-02
  
     ASYNCHRONOUS OUTPUT DATABASE FRAME FLUSH STARTED
  


  INCREMENT     2 STARTS. ATTEMPT NUMBER  1, TIME INCREMENT  1.000E-02
  
     ASYNCHRONOUS TRACKING ELEMENT LOOP STARTED
  

                   37 SEVERE DISCONTINUITIES OCCURRED DURING INCREMENT ATTEMPT INITIALIZATION.
                   37 POINTS CHANGED FROM STICKING TO SLIPPING

  NUMBER OF EQUATIONS =     9434     NUMBER OF FLOATING PT. OPERATIONS =  3.21E+07

  USING THE DIRECT SOLVER WITH  10 PROCESSORS

     CHECK POINT   START OF SOLVER    

     CHECK POINT  END OF SOLVER       

       ELAPSED USER TIME (SEC)      =  0.21000    
       ELAPSED SYSTEM TIME (SEC)    =  6.00000E-02
       ELAPSED TOTAL CPU TIME (SEC) =  0.27000    
       ELAPSED WALLCLOCK TIME (SEC) =          1
  
     ASYNCHRONOUS TRACKING ELEMENT LOOP STARTED
  

               CONVERGENCE CHECKS FOR EQUILIBRIUM ITERATION     1

   MAX. PENETRATION ERROR 92.0716E-12  AT NODE CAP-1.165 OF CONTACT PAIR 
   (ASSEMBLY_CAP-1_TRANSITION-AND-PUMP-CONTACT,ASSEMBLY_PUMP-TUBE-1_PISTON-CONTA
   CT)
   MAX. CONTACT FORCE ERROR 277.757E-06   AT NODE PISTON-1.278 OF CONTACT PAIR 
   (ASSEMBLY_PISTON-1_PUMP-CONTACT,ASSEMBLY_TUBE-INNER)
          THE CONTACT CONSTRAINTS HAVE CONVERGED.

 AVERAGE FORCE                      8.464E-04   TIME AVG. FORCE       2.653E-03
 LARGEST RESIDUAL FORCE             0.181       AT NODE       2815   DOF  1
   INSTANCE: PUMP-TUBE-1                                                                     
 LARGEST INCREMENT OF DISP.         5.795E-02   AT NODE         45   DOF  2
   INSTANCE: CAP-1                                                                           
 LARGEST CORRECTION TO DISP.        3.905E-02   AT NODE         45   DOF  2
   INSTANCE: CAP-1                                                                           
          FORCE     EQUILIBRIUM NOT ACHIEVED WITHIN TOLERANCE.

  NUMBER OF EQUATIONS =     9434     NUMBER OF FLOATING PT. OPERATIONS =  3.21E+07

  USING THE DIRECT SOLVER WITH  10 PROCESSORS

     CHECK POINT   START OF SOLVER    

     CHECK POINT  END OF SOLVER       

       ELAPSED USER TIME (SEC)      =  0.21000    
       ELAPSED SYSTEM TIME (SEC)    =  4.00000E-02
       ELAPSED TOTAL CPU TIME (SEC) =  0.25000    
       ELAPSED WALLCLOCK TIME (SEC) =          0
  
     ASYNCHRONOUS TRACKING ELEMENT LOOP STARTED
  

               CONVERGENCE CHECKS FOR EQUILIBRIUM ITERATION     2

   MAX. PENETRATION ERROR 3.20180E-15 AT NODE PISTON-1.24 OF CONTACT PAIR 
   (ASSEMBLY_PISTON-1_PUMP-CONTACT,ASSEMBLY_TUBE-INNER)
   MAX. CONTACT FORCE ERROR -22.9620E-09  AT NODE PISTON-1.408 OF CONTACT PAIR 
   (ASSEMBLY_PISTON-1_PUMP-CONTACT,ASSEMBLY_TUBE-INNER)
          THE CONTACT CONSTRAINTS HAVE CONVERGED.

 AVERAGE FORCE                      2.388E-03   TIME AVG. FORCE       3.424E-03
 LARGEST RESIDUAL FORCE             8.287E-06   AT NODE       2815   DOF  1
   INSTANCE: PUMP-TUBE-1                                                                     
 LARGEST INCREMENT OF DISP.         5.795E-02   AT NODE         45   DOF  2
   INSTANCE: CAP-1                                                                           
 LARGEST CORRECTION TO DISP.       -2.487E-06   AT NODE          1   DOF  1
   INSTANCE: CAP-1                                                                           
          THE FORCE     EQUILIBRIUM EQUATIONS HAVE CONVERGED

 ITERATION SUMMARY FOR THE INCREMENT:   2 TOTAL ITERATIONS, OF WHICH
   0 ARE SEVERE DISCONTINUITY ITERATIONS AND  2 ARE EQUILIBRIUM ITERATIONS.

 TIME INCREMENT COMPLETED  1.000E-02,  FRACTION OF STEP COMPLETED  2.000E-02
 STEP TIME COMPLETED       2.000E-02,  TOTAL TIME COMPLETED        2.000E-02
  
     ASYNCHRONOUS OUTPUT DATABASE FRAME FLUSH STARTED
  


  INCREMENT     3 STARTS. ATTEMPT NUMBER  1, TIME INCREMENT  1.000E-02
  
     ASYNCHRONOUS TRACKING ELEMENT LOOP STARTED
  

  NUMBER OF EQUATIONS =     9434     NUMBER OF FLOATING PT. OPERATIONS =  3.21E+07

  USING THE DIRECT SOLVER WITH  10 PROCESSORS

     CHECK POINT   START OF SOLVER    

     CHECK POINT  END OF SOLVER       

       ELAPSED USER TIME (SEC)      =  0.23000    
       ELAPSED SYSTEM TIME (SEC)    =  4.00000E-02
       ELAPSED TOTAL CPU TIME (SEC) =  0.27000    
       ELAPSED WALLCLOCK TIME (SEC) =          0
  
     ASYNCHRONOUS TRACKING ELEMENT LOOP STARTED
  

               CONVERGENCE CHECKS FOR EQUILIBRIUM ITERATION     1

   MAX. PENETRATION ERROR -21.3287E-12  AT NODE CAP-1.165 OF CONTACT PAIR 
   (ASSEMBLY_CAP-1_TRANSITION-AND-PUMP-CONTACT,ASSEMBLY_PUMP-TUBE-1_PISTON-CONTA
   CT)
   MAX. CONTACT FORCE ERROR -63.9284E-06  AT NODE PISTON-1.278 OF CONTACT PAIR 
   (ASSEMBLY_PISTON-1_PUMP-CONTACT,ASSEMBLY_TUBE-INNER)
          THE CONTACT CONSTRAINTS HAVE CONVERGED.

 AVERAGE FORCE                      9.936E-05   TIME AVG. FORCE       2.316E-03
 LARGEST RESIDUAL FORCE             1.924E-02   AT NODE       2815   DOF  1
   INSTANCE: PUMP-TUBE-1                                                                     
 LARGEST INCREMENT OF DISP.         9.810E-02   AT NODE         45   DOF  2
   INSTANCE: CAP-1                                                                           
 LARGEST CORRECTION TO DISP.        4.015E-02   AT NODE         69   DOF  2
   INSTANCE: CAP-1                                                                           
          FORCE     EQUILIBRIUM NOT ACHIEVED WITHIN TOLERANCE.

  NUMBER OF EQUATIONS =     9434     NUMBER OF FLOATING PT. OPERATIONS =  3.21E+07

  USING THE DIRECT SOLVER WITH  10 PROCESSORS

     CHECK POINT   START OF SOLVER    

     CHECK POINT  END OF SOLVER       

       ELAPSED USER TIME (SEC)      =  0.19000    
       ELAPSED SYSTEM TIME (SEC)    =  7.00000E-02
       ELAPSED TOTAL CPU TIME (SEC) =  0.26000    
       ELAPSED WALLCLOCK TIME (SEC) =          0
  
     ASYNCHRONOUS TRACKING ELEMENT LOOP STARTED
  

               CONVERGENCE CHECKS FOR EQUILIBRIUM ITERATION     2

   MAX. PENETRATION ERROR 3.21245E-15 AT NODE PISTON-1.473 OF CONTACT PAIR 
   (ASSEMBLY_PISTON-1_PUMP-CONTACT,ASSEMBLY_TUBE-INNER)
   MAX. CONTACT FORCE ERROR 28.4604E-09  AT NODE PISTON-1.473 OF CONTACT PAIR 
   (ASSEMBLY_PISTON-1_PUMP-CONTACT,ASSEMBLY_TUBE-INNER)
          THE CONTACT CONSTRAINTS HAVE CONVERGED.

 AVERAGE FORCE                      2.311E-04   TIME AVG. FORCE       2.360E-03
 LARGEST RESIDUAL FORCE             8.991E-08   AT NODE       2815   DOF  1
   INSTANCE: PUMP-TUBE-1                                                                     
 LARGEST INCREMENT OF DISP.         9.810E-02   AT NODE         45   DOF  2
   INSTANCE: CAP-1                                                                           
 LARGEST CORRECTION TO DISP.       -2.530E-07   AT NODE          1   DOF  1
   INSTANCE: CAP-1                                                                           
          THE FORCE     EQUILIBRIUM EQUATIONS HAVE CONVERGED

 ITERATION SUMMARY FOR THE INCREMENT:   2 TOTAL ITERATIONS, OF WHICH
   0 ARE SEVERE DISCONTINUITY ITERATIONS AND  2 ARE EQUILIBRIUM ITERATIONS.

 TIME INCREMENT COMPLETED  1.000E-02,  FRACTION OF STEP COMPLETED  3.000E-02
 STEP TIME COMPLETED       3.000E-02,  TOTAL TIME COMPLETED        3.000E-02
  
     ASYNCHRONOUS OUTPUT DATABASE FRAME FLUSH STARTED
  


  INCREMENT     4 STARTS. ATTEMPT NUMBER  1, TIME INCREMENT  1.000E-02
  
     ASYNCHRONOUS TRACKING ELEMENT LOOP STARTED
  

  NUMBER OF EQUATIONS =     9434     NUMBER OF FLOATING PT. OPERATIONS =  3.20E+07

  USING THE DIRECT SOLVER WITH  10 PROCESSORS

     CHECK POINT   START OF SOLVER    

     CHECK POINT  END OF SOLVER       

       ELAPSED USER TIME (SEC)      =  0.21000    
       ELAPSED SYSTEM TIME (SEC)    =  5.00000E-02
       ELAPSED TOTAL CPU TIME (SEC) =  0.26000    
       ELAPSED WALLCLOCK TIME (SEC) =          0
  
     ASYNCHRONOUS TRACKING ELEMENT LOOP STARTED
  

               CONVERGENCE CHECKS FOR EQUILIBRIUM ITERATION     1

   MAX. PENETRATION ERROR -13.1670E-12  AT NODE CAP-1.165 OF CONTACT PAIR 
   (ASSEMBLY_CAP-1_TRANSITION-AND-PUMP-CONTACT,ASSEMBLY_PUMP-TUBE-1_PISTON-CONTA
   CT)
   MAX. CONTACT FORCE ERROR -35.6824E-06  AT NODE PISTON-1.278 OF CONTACT PAIR 
   (ASSEMBLY_PISTON-1_PUMP-CONTACT,ASSEMBLY_TUBE-INNER)
          THE CONTACT CONSTRAINTS HAVE CONVERGED.

 AVERAGE FORCE                      1.655E-05   TIME AVG. FORCE       1.774E-03
 LARGEST RESIDUAL FORCE             1.951E-03   AT NODE       2815   DOF  1
   INSTANCE: PUMP-TUBE-1                                                                     
 LARGEST INCREMENT OF DISP.         0.138       AT NODE         45   DOF  2
   INSTANCE: CAP-1                                                                           
 LARGEST CORRECTION TO DISP.        4.019E-02   AT NODE         69   DOF  2
   INSTANCE: CAP-1                                                                           
          FORCE     EQUILIBRIUM NOT ACHIEVED WITHIN TOLERANCE.

  NUMBER OF EQUATIONS =     9434     NUMBER OF FLOATING PT. OPERATIONS =  3.20E+07

  USING THE DIRECT SOLVER WITH  10 PROCESSORS

     CHECK POINT   START OF SOLVER    

     CHECK POINT  END OF SOLVER       

       ELAPSED USER TIME (SEC)      =  0.19000    
       ELAPSED SYSTEM TIME (SEC)    =  7.00000E-02
       ELAPSED TOTAL CPU TIME (SEC) =  0.26000    
       ELAPSED WALLCLOCK TIME (SEC) =          0
  
     ASYNCHRONOUS TRACKING ELEMENT LOOP STARTED
  

               CONVERGENCE CHECKS FOR EQUILIBRIUM ITERATION     2

   MAX. PENETRATION ERROR -4.09602E-15 AT NODE CAP-1.169 OF CONTACT PAIR 
   (ASSEMBLY_CAP-1_TRANSITION-AND-PUMP-CONTACT,ASSEMBLY_PUMP-TUBE-1_PISTON-CONTA
   CT)
   MAX. CONTACT FORCE ERROR 25.7620E-09  AT NODE PISTON-1.24 OF CONTACT PAIR 
   (ASSEMBLY_PISTON-1_PUMP-CONTACT,ASSEMBLY_TUBE-INNER)
          THE CONTACT CONSTRAINTS HAVE CONVERGED.

 AVERAGE FORCE                      3.224E-05   TIME AVG. FORCE       1.778E-03
 LARGEST RESIDUAL FORCE             3.889E-09   AT NODE         28   DOF  1
   INSTANCE: CAP-1                                                                           
 LARGEST INCREMENT OF DISP.         0.138       AT NODE         45   DOF  2
   INSTANCE: CAP-1                                                                           
 LARGEST CORRECTION TO DISP.       -2.503E-08   AT NODE          1   DOF  1
   INSTANCE: CAP-1                                                                           
          THE FORCE     EQUILIBRIUM EQUATIONS HAVE CONVERGED

 ITERATION SUMMARY FOR THE INCREMENT:   2 TOTAL ITERATIONS, OF WHICH
   0 ARE SEVERE DISCONTINUITY ITERATIONS AND  2 ARE EQUILIBRIUM ITERATIONS.

 TIME INCREMENT COMPLETED  1.000E-02,  FRACTION OF STEP COMPLETED  4.000E-02
 STEP TIME COMPLETED       4.000E-02,  TOTAL TIME COMPLETED        4.000E-02
  
     ASYNCHRONOUS OUTPUT DATABASE FRAME FLUSH STARTED
  


  INCREMENT     5 STARTS. ATTEMPT NUMBER  1, TIME INCREMENT  1.000E-02
  
     ASYNCHRONOUS TRACKING ELEMENT LOOP STARTED
  

  NUMBER OF EQUATIONS =     9434     NUMBER OF FLOATING PT. OPERATIONS =  3.20E+07

  USING THE DIRECT SOLVER WITH  10 PROCESSORS

     CHECK POINT   START OF SOLVER    

     CHECK POINT  END OF SOLVER       

       ELAPSED USER TIME (SEC)      =  0.20000    
       ELAPSED SYSTEM TIME (SEC)    =  5.00000E-02
       ELAPSED TOTAL CPU TIME (SEC) =  0.25000    
       ELAPSED WALLCLOCK TIME (SEC) =          0
  
     ASYNCHRONOUS TRACKING ELEMENT LOOP STARTED
  

               CONVERGENCE CHECKS FOR EQUILIBRIUM ITERATION     1

   MAX. PENETRATION ERROR -2.10565E-12 AT NODE CAP-1.169 OF CONTACT PAIR 
   (ASSEMBLY_CAP-1_TRANSITION-AND-PUMP-CONTACT,ASSEMBLY_PUMP-TUBE-1_PISTON-CONTA
   CT)
   MAX. CONTACT FORCE ERROR -6.18851E-06 AT NODE PISTON-1.278 OF CONTACT PAIR 
   (ASSEMBLY_PISTON-1_PUMP-CONTACT,ASSEMBLY_TUBE-INNER)
          THE CONTACT CONSTRAINTS HAVE CONVERGED.

 AVERAGE FORCE                      2.302E-06   TIME AVG. FORCE       1.423E-03
 LARGEST RESIDUAL FORCE             1.824E-04   AT NODE       2815   DOF  1
   INSTANCE: PUMP-TUBE-1                                                                     
 LARGEST INCREMENT OF DISP.         0.177       AT NODE         45   DOF  2
   INSTANCE: CAP-1                                                                           
 LARGEST CORRECTION TO DISP.        3.911E-02   AT NODE         69   DOF  2
   INSTANCE: CAP-1                                                                           
          FORCE     EQUILIBRIUM NOT ACHIEVED WITHIN TOLERANCE.

  NUMBER OF EQUATIONS =     9434     NUMBER OF FLOATING PT. OPERATIONS =  3.20E+07

  USING THE DIRECT SOLVER WITH  10 PROCESSORS

     CHECK POINT   START OF SOLVER    

     CHECK POINT  END OF SOLVER       

       ELAPSED USER TIME (SEC)      =  0.20000    
       ELAPSED SYSTEM TIME (SEC)    =  7.00000E-02
       ELAPSED TOTAL CPU TIME (SEC) =  0.27000    
       ELAPSED WALLCLOCK TIME (SEC) =          1
  
     ASYNCHRONOUS TRACKING ELEMENT LOOP STARTED
  

               CONVERGENCE CHECKS FOR EQUILIBRIUM ITERATION     2

   MAX. PENETRATION ERROR -2.78128E-15 AT NODE PISTON-1.520 OF CONTACT PAIR 
   (ASSEMBLY_PISTON-1_PUMP-CONTACT,ASSEMBLY_TUBE-INNER)
   MAX. CONTACT FORCE ERROR -24.1198E-09  AT NODE PISTON-1.520 OF CONTACT PAIR 
   (ASSEMBLY_PISTON-1_PUMP-CONTACT,ASSEMBLY_TUBE-INNER)
          THE CONTACT CONSTRAINTS HAVE CONVERGED.

 AVERAGE FORCE                      4.090E-06   TIME AVG. FORCE       1.423E-03
 LARGEST RESIDUAL FORCE             2.518E-09   AT NODE         92   DOF  2
   INSTANCE: PISTON-1                                                                        
 LARGEST INCREMENT OF DISP.         0.177       AT NODE         45   DOF  2
   INSTANCE: CAP-1                                                                           
 LARGEST CORRECTION TO DISP.       -2.407E-09   AT NODE          1   DOF  1
   INSTANCE: CAP-1                                                                           
          THE FORCE     EQUILIBRIUM EQUATIONS HAVE CONVERGED

 ITERATION SUMMARY FOR THE INCREMENT:   2 TOTAL ITERATIONS, OF WHICH
   0 ARE SEVERE DISCONTINUITY ITERATIONS AND  2 ARE EQUILIBRIUM ITERATIONS.

 TIME INCREMENT COMPLETED  1.000E-02,  FRACTION OF STEP COMPLETED  5.000E-02
 STEP TIME COMPLETED       5.000E-02,  TOTAL TIME COMPLETED        5.000E-02
  
     ASYNCHRONOUS OUTPUT DATABASE FRAME FLUSH STARTED
  


  INCREMENT     6 STARTS. ATTEMPT NUMBER  1, TIME INCREMENT  1.000E-02
  
     ASYNCHRONOUS TRACKING ELEMENT LOOP STARTED
  

  NUMBER OF EQUATIONS =     9434     NUMBER OF FLOATING PT. OPERATIONS =  3.20E+07

  USING THE DIRECT SOLVER WITH  10 PROCESSORS

     CHECK POINT   START OF SOLVER    

     CHECK POINT  END OF SOLVER       

       ELAPSED USER TIME (SEC)      =  0.21000    
       ELAPSED SYSTEM TIME (SEC)    =  6.00000E-02
       ELAPSED TOTAL CPU TIME (SEC) =  0.27000    
       ELAPSED WALLCLOCK TIME (SEC) =          0
  
     ASYNCHRONOUS TRACKING ELEMENT LOOP STARTED
  

               CONVERGENCE CHECKS FOR EQUILIBRIUM ITERATION     1

   MAX. PENETRATION ERROR -256.026E-15   AT NODE CAP-1.165 OF CONTACT PAIR 
   (ASSEMBLY_CAP-1_TRANSITION-AND-PUMP-CONTACT,ASSEMBLY_PUMP-TUBE-1_PISTON-CONTA
   CT)
   MAX. CONTACT FORCE ERROR -846.035E-09   AT NODE PISTON-1.278 OF CONTACT PAIR 
   (ASSEMBLY_PISTON-1_PUMP-CONTACT,ASSEMBLY_TUBE-INNER)
          THE CONTACT CONSTRAINTS HAVE CONVERGED.

 AVERAGE FORCE                      2.917E-07   TIME AVG. FORCE       1.186E-03
 LARGEST RESIDUAL FORCE             1.661E-05   AT NODE       2815   DOF  1
   INSTANCE: PUMP-TUBE-1                                                                     
 LARGEST INCREMENT OF DISP.         0.214       AT NODE         45   DOF  2
   INSTANCE: CAP-1                                                                           
 LARGEST CORRECTION TO DISP.        3.691E-02   AT NODE         69   DOF  2
   INSTANCE: CAP-1                                                                           
          FORCE     EQUILIBRIUM NOT ACHIEVED WITHIN TOLERANCE.

  NUMBER OF EQUATIONS =     9434     NUMBER OF FLOATING PT. OPERATIONS =  3.20E+07

  USING THE DIRECT SOLVER WITH  10 PROCESSORS

     CHECK POINT   START OF SOLVER    

     CHECK POINT  END OF SOLVER       

       ELAPSED USER TIME (SEC)      =  0.18000    
       ELAPSED SYSTEM TIME (SEC)    =  7.00000E-02
       ELAPSED TOTAL CPU TIME (SEC) =  0.25000    
       ELAPSED WALLCLOCK TIME (SEC) =          0
  
     ASYNCHRONOUS TRACKING ELEMENT LOOP STARTED
  

               CONVERGENCE CHECKS FOR EQUILIBRIUM ITERATION     2

   MAX. PENETRATION ERROR -4.09611E-15 AT NODE CAP-1.4 OF CONTACT PAIR 
   (ASSEMBLY_CAP-1_TRANSITION-AND-PUMP-CONTACT,ASSEMBLY_PUMP-TUBE-1_PISTON-CONTA
   CT)
   MAX. CONTACT FORCE ERROR -29.7157E-09  AT NODE PISTON-1.476 OF CONTACT PAIR 
   (ASSEMBLY_PISTON-1_PUMP-CONTACT,ASSEMBLY_TUBE-INNER)
          THE CONTACT CONSTRAINTS HAVE CONVERGED.

 AVERAGE FORCE                      4.888E-07   TIME AVG. FORCE       1.186E-03
 LARGEST RESIDUAL FORCE            -3.140E-09   AT NODE        418   DOF  2
   INSTANCE: PISTON-1                                                                        
 LARGEST INCREMENT OF DISP.         0.214       AT NODE         45   DOF  2
   INSTANCE: CAP-1                                                                           
 LARGEST CORRECTION TO DISP.       -2.244E-10   AT NODE          1   DOF  1
   INSTANCE: CAP-1                                                                           
          THE FORCE     EQUILIBRIUM EQUATIONS HAVE CONVERGED

 ITERATION SUMMARY FOR THE INCREMENT:   2 TOTAL ITERATIONS, OF WHICH
   0 ARE SEVERE DISCONTINUITY ITERATIONS AND  2 ARE EQUILIBRIUM ITERATIONS.

 TIME INCREMENT COMPLETED  1.000E-02,  FRACTION OF STEP COMPLETED  6.000E-02
 STEP TIME COMPLETED       6.000E-02,  TOTAL TIME COMPLETED        6.000E-02
  
     ASYNCHRONOUS OUTPUT DATABASE FRAME FLUSH STARTED
  


  INCREMENT     7 STARTS. ATTEMPT NUMBER  1, TIME INCREMENT  1.000E-02
  
     ASYNCHRONOUS TRACKING ELEMENT LOOP STARTED
  

  NUMBER OF EQUATIONS =     9434     NUMBER OF FLOATING PT. OPERATIONS =  3.04E+07

  USING THE DIRECT SOLVER WITH  10 PROCESSORS

     CHECK POINT   START OF SOLVER    

     CHECK POINT  END OF SOLVER       

       ELAPSED USER TIME (SEC)      =  0.24000    
       ELAPSED SYSTEM TIME (SEC)    =  5.00000E-02
       ELAPSED TOTAL CPU TIME (SEC) =  0.29000    
       ELAPSED WALLCLOCK TIME (SEC) =          0
  
     ASYNCHRONOUS TRACKING ELEMENT LOOP STARTED
  

                    2 SEVERE DISCONTINUITIES OCCURRED DURING THIS ITERATION.
                    2 POINTS CHANGED FROM CLOSED TO OPEN

               CONVERGENCE CHECKS FOR SEVERE DISCONTINUITY ITERATION     1

   MAX. PENETRATION ERROR -29.8540E-15  AT NODE CAP-1.165 OF CONTACT PAIR 
   (ASSEMBLY_CAP-1_TRANSITION-AND-PUMP-CONTACT,ASSEMBLY_PUMP-TUBE-1_PISTON-CONTA
   CT)
   MAX. CONTACT FORCE ERROR -111.199E-09   AT NODE PISTON-1.278 OF CONTACT PAIR 
   (ASSEMBLY_PISTON-1_PUMP-CONTACT,ASSEMBLY_TUBE-INNER)
          THE CONTACT CONSTRAINT ERRORS ARE WITHIN THE TOLERANCES.

 AVERAGE FORCE                      3.472E-08   TIME AVG. FORCE       1.017E-03
 LARGEST RESIDUAL FORCE             1.403E-06   AT NODE       2815   DOF  1
   INSTANCE: PUMP-TUBE-1                                                                     
 LARGEST INCREMENT OF DISP.         0.248       AT NODE         45   DOF  2
   INSTANCE: CAP-1                                                                           
 LARGEST CORRECTION TO DISP.        3.361E-02   AT NODE         69   DOF  2
   INSTANCE: CAP-1                                                                           
          DISP.    CORRECTION TOO LARGE COMPARED TO DISP.    INCREMENT

  NUMBER OF EQUATIONS =     9434     NUMBER OF FLOATING PT. OPERATIONS =  3.04E+07

  USING THE DIRECT SOLVER WITH  10 PROCESSORS

     CHECK POINT   START OF SOLVER    

     CHECK POINT  END OF SOLVER       

       ELAPSED USER TIME (SEC)      =  0.20000    
       ELAPSED SYSTEM TIME (SEC)    =  8.00000E-02
       ELAPSED TOTAL CPU TIME (SEC) =  0.28000    
       ELAPSED WALLCLOCK TIME (SEC) =          0
  
     ASYNCHRONOUS TRACKING ELEMENT LOOP STARTED
  

                    4 SEVERE DISCONTINUITIES OCCURRED DURING THIS ITERATION.
                    2 POINTS CHANGED FROM OPEN TO CLOSED
                    2 POINTS CHANGED FROM STICKING TO SLIPPING

               CONVERGENCE CHECKS FOR SEVERE DISCONTINUITY ITERATION     2

   MAX. PENETRATION ERROR 4.16072E-15 AT NODE PISTON-1.482 OF CONTACT PAIR 
   (ASSEMBLY_PISTON-1_PUMP-CONTACT,ASSEMBLY_TUBE-INNER)
   MAX. CONTACT FORCE ERROR 36.0827E-09  AT NODE PISTON-1.482 OF CONTACT PAIR 
   (ASSEMBLY_PISTON-1_PUMP-CONTACT,ASSEMBLY_TUBE-INNER)
          THE CONTACT CONSTRAINT ERRORS ARE WITHIN THE TOLERANCES.

 AVERAGE FORCE                      5.569E-08   TIME AVG. FORCE       1.017E-03
 LARGEST RESIDUAL FORCE             3.101E-09   AT NODE        291   DOF  2
   INSTANCE: PISTON-1                                                                        
 LARGEST INCREMENT OF DISP.         0.248       AT NODE         45   DOF  2
   INSTANCE: CAP-1                                                                           
 LARGEST CORRECTION TO DISP.       -2.018E-11   AT NODE          1   DOF  1
   INSTANCE: CAP-1                                                                           
          THE FORCE     EQUILIBRIUM EQUATIONS HAVE CONVERGED

 ITERATION SUMMARY FOR THE INCREMENT:   2 TOTAL ITERATIONS, OF WHICH
   2 ARE SEVERE DISCONTINUITY ITERATIONS AND  0 ARE EQUILIBRIUM ITERATIONS.

 TIME INCREMENT COMPLETED  1.000E-02,  FRACTION OF STEP COMPLETED  7.000E-02
 STEP TIME COMPLETED       7.000E-02,  TOTAL TIME COMPLETED        7.000E-02
  
     ASYNCHRONOUS OUTPUT DATABASE FRAME FLUSH STARTED
  


  INCREMENT     8 STARTS. ATTEMPT NUMBER  1, TIME INCREMENT  1.000E-02
  
     ASYNCHRONOUS TRACKING ELEMENT LOOP STARTED
  

  NUMBER OF EQUATIONS =     9434     NUMBER OF FLOATING PT. OPERATIONS =  3.04E+07

  USING THE DIRECT SOLVER WITH  10 PROCESSORS

     CHECK POINT   START OF SOLVER    

     CHECK POINT  END OF SOLVER       

       ELAPSED USER TIME (SEC)      =  0.18000    
       ELAPSED SYSTEM TIME (SEC)    =  9.00000E-02
       ELAPSED TOTAL CPU TIME (SEC) =  0.27000    
       ELAPSED WALLCLOCK TIME (SEC) =          0
  
     ASYNCHRONOUS TRACKING ELEMENT LOOP STARTED
  

                   14 SEVERE DISCONTINUITIES OCCURRED DURING THIS ITERATION.
                   14 POINTS CHANGED FROM CLOSED TO OPEN

               CONVERGENCE CHECKS FOR SEVERE DISCONTINUITY ITERATION     1

   MAX. PENETRATION ERROR -4.61852E-15 AT NODE CAP-1.189 OF CONTACT PAIR 
   (ASSEMBLY_CAP-1_TRANSITION-AND-PUMP-CONTACT,ASSEMBLY_PUMP-TUBE-1_PISTON-CONTA
   CT)
   MAX. CONTACT FORCE ERROR -42.5922E-09  AT NODE PISTON-1.478 OF CONTACT PAIR 
   (ASSEMBLY_PISTON-1_PUMP-CONTACT,ASSEMBLY_TUBE-INNER)
          THE CONTACT CONSTRAINT ERRORS ARE WITHIN THE TOLERANCES.

 AVERAGE FORCE                      3.950E-09   TIME AVG. FORCE       1.017E-03
 LARGEST RESIDUAL FORCE            -1.127E-07   AT NODE          1   DOF  1
   INSTANCE: CAP-1                                                                           
 LARGEST INCREMENT OF DISP.         0.277       AT NODE         45   DOF  2
   INSTANCE: CAP-1                                                                           
 LARGEST CORRECTION TO DISP.        2.926E-02   AT NODE         69   DOF  2
   INSTANCE: CAP-1                                                                           
          THE FORCE     IS ZERO EVERYWHERE BUT THE FORCE     RESIDUAL OR
          THE DISP.    CORRECTION IS NON-ZERO

  NUMBER OF EQUATIONS =     9434     NUMBER OF FLOATING PT. OPERATIONS =  3.00E+07

  USING THE DIRECT SOLVER WITH  10 PROCESSORS

     CHECK POINT   START OF SOLVER    

     CHECK POINT  END OF SOLVER       

       ELAPSED USER TIME (SEC)      =  0.18000    
       ELAPSED SYSTEM TIME (SEC)    =  8.00000E-02
       ELAPSED TOTAL CPU TIME (SEC) =  0.26000    
       ELAPSED WALLCLOCK TIME (SEC) =          0
  
     ASYNCHRONOUS TRACKING ELEMENT LOOP STARTED
  

                   15 SEVERE DISCONTINUITIES OCCURRED DURING THIS ITERATION.
                    6 POINTS CHANGED FROM OPEN TO CLOSED
                    3 POINTS CHANGED FROM CLOSED TO OPEN
                    6 POINTS CHANGED FROM STICKING TO SLIPPING

               CONVERGENCE CHECKS FOR SEVERE DISCONTINUITY ITERATION     2

   MAX. PENETRATION ERROR 3.21246E-15 AT NODE PISTON-1.16 OF CONTACT PAIR 
   (ASSEMBLY_PISTON-1_PUMP-CONTACT,ASSEMBLY_TUBE-INNER)
   MAX. CONTACT FORCE ERROR 23.3699E-09  AT NODE PISTON-1.16 OF CONTACT PAIR 
   (ASSEMBLY_PISTON-1_PUMP-CONTACT,ASSEMBLY_TUBE-INNER)
          THE CONTACT CONSTRAINT ERRORS ARE WITHIN THE TOLERANCES.

 AVERAGE FORCE                      5.881E-09   TIME AVG. FORCE       1.017E-03
 LARGEST RESIDUAL FORCE            -1.312E-08   AT NODE         19   DOF  1
   INSTANCE: PISTON-1                                                                        
 LARGEST INCREMENT OF DISP.         0.277       AT NODE         45   DOF  2
   INSTANCE: CAP-1                                                                           
 LARGEST CORRECTION TO DISP.       -1.612E-12   AT NODE          1   DOF  1
   INSTANCE: CAP-1                                                                           
          ALL DISP.    CORRECTIONS ARE ZERO

 ITERATION SUMMARY FOR THE INCREMENT:   2 TOTAL ITERATIONS, OF WHICH
   2 ARE SEVERE DISCONTINUITY ITERATIONS AND  0 ARE EQUILIBRIUM ITERATIONS.

 TIME INCREMENT COMPLETED  1.000E-02,  FRACTION OF STEP COMPLETED  8.000E-02
 STEP TIME COMPLETED       8.000E-02,  TOTAL TIME COMPLETED        8.000E-02
  
     ASYNCHRONOUS OUTPUT DATABASE FRAME FLUSH STARTED
  


  INCREMENT     9 STARTS. ATTEMPT NUMBER  1, TIME INCREMENT  1.000E-02
  
     ASYNCHRONOUS TRACKING ELEMENT LOOP STARTED
  

  NUMBER OF EQUATIONS =     9434     NUMBER OF FLOATING PT. OPERATIONS =  3.12E+07

  USING THE DIRECT SOLVER WITH  10 PROCESSORS

     CHECK POINT   START OF SOLVER    

     CHECK POINT  END OF SOLVER       

       ELAPSED USER TIME (SEC)      =  0.22000    
       ELAPSED SYSTEM TIME (SEC)    =  6.00000E-02
       ELAPSED TOTAL CPU TIME (SEC) =  0.28000    
       ELAPSED WALLCLOCK TIME (SEC) =          0
  
     ASYNCHRONOUS TRACKING ELEMENT LOOP STARTED
  

                   40 SEVERE DISCONTINUITIES OCCURRED DURING THIS ITERATION.
                    8 POINTS CHANGED FROM OPEN TO CLOSED
                   24 POINTS CHANGED FROM CLOSED TO OPEN
                    8 POINTS CHANGED FROM STICKING TO SLIPPING

               CONVERGENCE CHECKS FOR SEVERE DISCONTINUITY ITERATION     1

   MAX. PENETRATION ERROR 1.61788E-12 AT NODE CAP-1.149 OF CONTACT PAIR 
   (ASSEMBLY_CAP-1_TRANSITION-AND-PUMP-CONTACT,ASSEMBLY_PUMP-TUBE-1_PISTON-CONTA
   CT)
   MAX. CONTACT FORCE ERROR 1.55413E-06 AT NODE CAP-1.32 OF CONTACT PAIR 
   (ASSEMBLY_CAP-1_TRANSITION-AND-PUMP-CONTACT,ASSEMBLY_PUMP-TUBE-1_PISTON-CONTA
   CT)
          THE CONTACT CONSTRAINT ERRORS ARE WITHIN THE TOLERANCES.

 AVERAGE FORCE                      6.755E-10   TIME AVG. FORCE       1.017E-03
 LARGEST RESIDUAL FORCE            -1.389E-08   AT NODE        478   DOF  1
   INSTANCE: PISTON-1                                                                        
 LARGEST INCREMENT OF DISP.         0.301       AT NODE         45   DOF  2
   INSTANCE: CAP-1                                                                           
 LARGEST CORRECTION TO DISP.        2.396E-02   AT NODE         69   DOF  2
   INSTANCE: CAP-1                                                                           
          THE FORCE     IS ZERO EVERYWHERE BUT THE FORCE     RESIDUAL OR
          THE DISP.    CORRECTION IS NON-ZERO

  NUMBER OF EQUATIONS =     9434     NUMBER OF FLOATING PT. OPERATIONS =  2.81E+07

  USING THE DIRECT SOLVER WITH  10 PROCESSORS

     CHECK POINT   START OF SOLVER    

     CHECK POINT  END OF SOLVER       

       ELAPSED USER TIME (SEC)      =  0.20000    
       ELAPSED SYSTEM TIME (SEC)    =  6.00000E-02
       ELAPSED TOTAL CPU TIME (SEC) =  0.26000    
       ELAPSED WALLCLOCK TIME (SEC) =          0
  
     ASYNCHRONOUS TRACKING ELEMENT LOOP STARTED
  

                   50 SEVERE DISCONTINUITIES OCCURRED DURING THIS ITERATION.
                   24 POINTS CHANGED FROM OPEN TO CLOSED
                    2 POINTS CHANGED FROM CLOSED TO OPEN
                   24 POINTS CHANGED FROM STICKING TO SLIPPING

               CONVERGENCE CHECKS FOR SEVERE DISCONTINUITY ITERATION     2

   MAX. PENETRATION ERROR 146.391E-15   AT NODE CAP-1.27 OF CONTACT PAIR 
   (ASSEMBLY_CAP-1_TRANSITION-AND-PUMP-CONTACT,ASSEMBLY_PUMP-TUBE-1_PISTON-CONTA
   CT)
   MAX. CONTACT FORCE ERROR 129.058E-09   AT NODE CAP-1.27 OF CONTACT PAIR 
   (ASSEMBLY_CAP-1_TRANSITION-AND-PUMP-CONTACT,ASSEMBLY_PUMP-TUBE-1_PISTON-CONTA
   CT)
          THE CONTACT CONSTRAINT ERRORS ARE WITHIN THE TOLERANCES.

 AVERAGE FORCE                      3.066E-09   TIME AVG. FORCE       1.017E-03
 LARGEST RESIDUAL FORCE            -3.309E-08   AT NODE        153   DOF  1
   INSTANCE: CAP-1                                                                           
 LARGEST INCREMENT OF DISP.         0.301       AT NODE         45   DOF  2
   INSTANCE: CAP-1                                                                           
 LARGEST CORRECTION TO DISP.       -2.114E-12   AT NODE         32   DOF  1
   INSTANCE: CAP-1                                                                           
          ALL DISP.    CORRECTIONS ARE ZERO

 ITERATION SUMMARY FOR THE INCREMENT:   2 TOTAL ITERATIONS, OF WHICH
   2 ARE SEVERE DISCONTINUITY ITERATIONS AND  0 ARE EQUILIBRIUM ITERATIONS.

 TIME INCREMENT COMPLETED  1.000E-02,  FRACTION OF STEP COMPLETED  9.000E-02
 STEP TIME COMPLETED       9.000E-02,  TOTAL TIME COMPLETED        9.000E-02
  
     ASYNCHRONOUS OUTPUT DATABASE FRAME FLUSH STARTED
  


  INCREMENT    10 STARTS. ATTEMPT NUMBER  1, TIME INCREMENT  1.000E-02
  
     ASYNCHRONOUS TRACKING ELEMENT LOOP STARTED
  

  NUMBER OF EQUATIONS =     9434     NUMBER OF FLOATING PT. OPERATIONS =  2.93E+07

  USING THE DIRECT SOLVER WITH  10 PROCESSORS

     CHECK POINT   START OF SOLVER    

     CHECK POINT  END OF SOLVER       

       ELAPSED USER TIME (SEC)      =  0.20000    
       ELAPSED SYSTEM TIME (SEC)    =  8.00000E-02
       ELAPSED TOTAL CPU TIME (SEC) =  0.28000    
       ELAPSED WALLCLOCK TIME (SEC) =          0
  
     ASYNCHRONOUS TRACKING ELEMENT LOOP STARTED
  

                   30 SEVERE DISCONTINUITIES OCCURRED DURING THIS ITERATION.
                   11 POINTS CHANGED FROM OPEN TO CLOSED
                    8 POINTS CHANGED FROM CLOSED TO OPEN
                   11 POINTS CHANGED FROM STICKING TO SLIPPING

               CONVERGENCE CHECKS FOR SEVERE DISCONTINUITY ITERATION     1

   MAX. PENETRATION ERROR 18.8087E-03  AT NODE CAP-1.519 OF CONTACT PAIR 
   (ASSEMBLY_CAP-1_TRANSITION-AND-PUMP-CONTACT,ASSEMBLY_TRANSITION-PIECE-1_END-C
   ONTACT)
   MAX. CONTACT FORCE ERROR 5.84238E+03 AT NODE CAP-1.519 OF CONTACT PAIR 
   (ASSEMBLY_CAP-1_TRANSITION-AND-PUMP-CONTACT,ASSEMBLY_TRANSITION-PIECE-1_END-C
   ONTACT)
          PENETRATION ERROR TOO LARGE COMPARED TO DISPLACEMENT INCREMENT.

 AVERAGE FORCE                      0.483       TIME AVG. FORCE       6.127E-02
 LARGEST RESIDUAL FORCE              1.48       AT NODE          6   DOF  1
   INSTANCE: PUMP-TUBE-1                                                                     
 LARGEST INCREMENT OF DISP.         0.319       AT NODE        225   DOF  2
   INSTANCE: CAP-1                                                                           
 LARGEST CORRECTION TO DISP.        1.781E-02   AT NODE         69   DOF  2
   INSTANCE: CAP-1                                                                           
          FORCE     EQUILIBRIUM NOT ACHIEVED WITHIN TOLERANCE.

  NUMBER OF EQUATIONS =     9434     NUMBER OF FLOATING PT. OPERATIONS =  3.00E+07

  USING THE DIRECT SOLVER WITH  10 PROCESSORS

     CHECK POINT   START OF SOLVER    

     CHECK POINT  END OF SOLVER       

       ELAPSED USER TIME (SEC)      =  0.20000    
       ELAPSED SYSTEM TIME (SEC)    =  6.00000E-02
       ELAPSED TOTAL CPU TIME (SEC) =  0.26000    
       ELAPSED WALLCLOCK TIME (SEC) =          0
  
     ASYNCHRONOUS TRACKING ELEMENT LOOP STARTED
  

                   27 SEVERE DISCONTINUITIES OCCURRED DURING THIS ITERATION.
                   12 POINTS CHANGED FROM OPEN TO CLOSED
                    3 POINTS CHANGED FROM CLOSED TO OPEN
                   12 POINTS CHANGED FROM STICKING TO SLIPPING

               CONVERGENCE CHECKS FOR SEVERE DISCONTINUITY ITERATION     2

   MAX. PENETRATION ERROR 663.743E-06   AT NODE CAP-1.31 OF CONTACT PAIR 
   (ASSEMBLY_CAP-1_TRANSITION-AND-PUMP-CONTACT,ASSEMBLY_PUMP-TUBE-1_PISTON-CONTA
   CT)
   MAX. CONTACT FORCE ERROR -2.23304E+03 AT NODE CAP-1.1 OF CONTACT PAIR 
   (ASSEMBLY_CAP-1_TRANSITION-AND-PUMP-CONTACT,ASSEMBLY_TRANSITION-PIECE-1_END-C
   ONTACT)
          THE ESTIMATED CONTACT FORCE ERROR IS OUTSIDE OF CONVERGENCE TOLERANCES.

 AVERAGE FORCE                       64.8       TIME AVG. FORCE        8.10    
 LARGEST RESIDUAL FORCE             2.043E+03   AT NODE          6   DOF  1
   INSTANCE: PUMP-TUBE-1                                                                     
 LARGEST INCREMENT OF DISP.         0.319       AT NODE          8   DOF  2
   INSTANCE: PISTON-1                                                                        
 LARGEST CORRECTION TO DISP.       -3.328E-02   AT NODE        519   DOF  2
   INSTANCE: CAP-1                                                                           
          FORCE     EQUILIBRIUM NOT ACHIEVED WITHIN TOLERANCE.

  NUMBER OF EQUATIONS =     9434     NUMBER OF FLOATING PT. OPERATIONS =  3.16E+07

  USING THE DIRECT SOLVER WITH  10 PROCESSORS

     CHECK POINT   START OF SOLVER    

     CHECK POINT  END OF SOLVER       

       ELAPSED USER TIME (SEC)      =  0.20000    
       ELAPSED SYSTEM TIME (SEC)    =  8.00000E-02
       ELAPSED TOTAL CPU TIME (SEC) =  0.28000    
       ELAPSED WALLCLOCK TIME (SEC) =          0
  
     ASYNCHRONOUS TRACKING ELEMENT LOOP STARTED
  

                    1 SEVERE DISCONTINUITIES OCCURRED DURING THIS ITERATION.
                    1 POINTS CHANGED FROM CLOSED TO OPEN

               CONVERGENCE CHECKS FOR SEVERE DISCONTINUITY ITERATION     3

   MAX. PENETRATION ERROR -1.56129E-06 AT NODE CAP-1.519 OF CONTACT PAIR 
   (ASSEMBLY_CAP-1_TRANSITION-AND-PUMP-CONTACT,ASSEMBLY_TRANSITION-PIECE-1_END-C
   ONTACT)
   MAX. CONTACT FORCE ERROR -440.018       AT NODE CAP-1.32 OF CONTACT PAIR 
   (ASSEMBLY_CAP-1_TRANSITION-AND-PUMP-CONTACT,ASSEMBLY_PUMP-TUBE-1_PISTON-CONTA
   CT)
          THE ESTIMATED CONTACT FORCE ERROR IS OUTSIDE OF CONVERGENCE TOLERANCES.

 AVERAGE FORCE                       51.6       TIME AVG. FORCE        6.45    
 LARGEST RESIDUAL FORCE             -295.       AT NODE         32   DOF  1
   INSTANCE: CAP-1                                                                           
 LARGEST INCREMENT OF DISP.         0.319       AT NODE          8   DOF  2
   INSTANCE: PISTON-1                                                                        
 LARGEST CORRECTION TO DISP.        1.147E-02   AT NODE         69   DOF  2
   INSTANCE: CAP-1                                                                           
          FORCE     EQUILIBRIUM NOT ACHIEVED WITHIN TOLERANCE.

  NUMBER OF EQUATIONS =     9434     NUMBER OF FLOATING PT. OPERATIONS =  3.16E+07

  USING THE DIRECT SOLVER WITH  10 PROCESSORS

     CHECK POINT   START OF SOLVER    

     CHECK POINT  END OF SOLVER       

       ELAPSED USER TIME (SEC)      =  0.19000    
       ELAPSED SYSTEM TIME (SEC)    =  9.00000E-02
       ELAPSED TOTAL CPU TIME (SEC) =  0.28000    
       ELAPSED WALLCLOCK TIME (SEC) =          0
  
     ASYNCHRONOUS TRACKING ELEMENT LOOP STARTED
  

                    1 SEVERE DISCONTINUITIES OCCURRED DURING THIS ITERATION.
                    1 POINTS CHANGED FROM CLOSED TO OPEN

               CONVERGENCE CHECKS FOR SEVERE DISCONTINUITY ITERATION     4

   MAX. PENETRATION ERROR -384.240E-09   AT NODE CAP-1.519 OF CONTACT PAIR 
   (ASSEMBLY_CAP-1_TRANSITION-AND-PUMP-CONTACT,ASSEMBLY_TRANSITION-PIECE-1_END-C
   ONTACT)
   MAX. CONTACT FORCE ERROR -149.459       AT NODE CAP-1.153 OF CONTACT PAIR 
   (ASSEMBLY_CAP-1_TRANSITION-AND-PUMP-CONTACT,ASSEMBLY_PUMP-TUBE-1_PISTON-CONTA
   CT)
          THE ESTIMATED CONTACT FORCE ERROR IS OUTSIDE OF CONVERGENCE TOLERANCES.

 AVERAGE FORCE                       59.9       TIME AVG. FORCE        7.49    
 LARGEST RESIDUAL FORCE             -100.       AT NODE        153   DOF  1
   INSTANCE: CAP-1                                                                           
 LARGEST INCREMENT OF DISP.         0.319       AT NODE          8   DOF  2
   INSTANCE: PISTON-1                                                                        
 LARGEST CORRECTION TO DISP.       -1.615E-03   AT NODE         32   DOF  1
   INSTANCE: CAP-1                                                                           
          FORCE     EQUILIBRIUM NOT ACHIEVED WITHIN TOLERANCE.

  NUMBER OF EQUATIONS =     9434     NUMBER OF FLOATING PT. OPERATIONS =  3.16E+07

  USING THE DIRECT SOLVER WITH  10 PROCESSORS

     CHECK POINT   START OF SOLVER    

     CHECK POINT  END OF SOLVER       

       ELAPSED USER TIME (SEC)      =  0.19000    
       ELAPSED SYSTEM TIME (SEC)    =  8.00000E-02
       ELAPSED TOTAL CPU TIME (SEC) =  0.27000    
       ELAPSED WALLCLOCK TIME (SEC) =          0
  
     ASYNCHRONOUS TRACKING ELEMENT LOOP STARTED
  

               CONVERGENCE CHECKS FOR EQUILIBRIUM ITERATION     1

   MAX. PENETRATION ERROR -15.0116E-09  AT NODE CAP-1.519 OF CONTACT PAIR 
   (ASSEMBLY_CAP-1_TRANSITION-AND-PUMP-CONTACT,ASSEMBLY_TRANSITION-PIECE-1_END-C
   ONTACT)
   MAX. CONTACT FORCE ERROR 5.58318E-03 AT NODE CAP-1.31 OF CONTACT PAIR 
   (ASSEMBLY_CAP-1_TRANSITION-AND-PUMP-CONTACT,ASSEMBLY_PUMP-TUBE-1_PISTON-CONTA
   CT)
          THE CONTACT CONSTRAINTS HAVE CONVERGED.

 AVERAGE FORCE                       60.3       TIME AVG. FORCE        7.53    
 LARGEST RESIDUAL FORCE            -2.620E-02   AT NODE        149   DOF  2
   INSTANCE: CAP-1                                                                           
 LARGEST INCREMENT OF DISP.         0.319       AT NODE          8   DOF  2
   INSTANCE: PISTON-1                                                                        
 LARGEST CORRECTION TO DISP.       -5.471E-04   AT NODE        153   DOF  1
   INSTANCE: CAP-1                                                                           
          THE FORCE     EQUILIBRIUM EQUATIONS HAVE CONVERGED

 ITERATION SUMMARY FOR THE INCREMENT:   5 TOTAL ITERATIONS, OF WHICH
   4 ARE SEVERE DISCONTINUITY ITERATIONS AND  1 ARE EQUILIBRIUM ITERATIONS.

 TIME INCREMENT COMPLETED  1.000E-02,  FRACTION OF STEP COMPLETED  0.100    
 STEP TIME COMPLETED       0.100    ,  TOTAL TIME COMPLETED        0.100    
  
     ASYNCHRONOUS OUTPUT DATABASE FRAME FLUSH STARTED
  


  INCREMENT    11 STARTS. ATTEMPT NUMBER  1, TIME INCREMENT  1.000E-02
  
     ASYNCHRONOUS TRACKING ELEMENT LOOP STARTED
  

  NUMBER OF EQUATIONS =     9434     NUMBER OF FLOATING PT. OPERATIONS =  3.24E+07

  USING THE DIRECT SOLVER WITH  10 PROCESSORS

     CHECK POINT   START OF SOLVER    

     CHECK POINT  END OF SOLVER       

       ELAPSED USER TIME (SEC)      =  0.21000    
       ELAPSED SYSTEM TIME (SEC)    =  5.00000E-02
       ELAPSED TOTAL CPU TIME (SEC) =  0.26000    
       ELAPSED WALLCLOCK TIME (SEC) =          0
  
     ASYNCHRONOUS TRACKING ELEMENT LOOP STARTED
  

               CONVERGENCE CHECKS FOR EQUILIBRIUM ITERATION     1

   MAX. PENETRATION ERROR 755.005E-06   AT NODE CAP-1.519 OF CONTACT PAIR 
   (ASSEMBLY_CAP-1_TRANSITION-AND-PUMP-CONTACT,ASSEMBLY_TRANSITION-PIECE-1_END-C
   ONTACT)
   MAX. CONTACT FORCE ERROR 234.947       AT NODE CAP-1.519 OF CONTACT PAIR 
   (ASSEMBLY_CAP-1_TRANSITION-AND-PUMP-CONTACT,ASSEMBLY_TRANSITION-PIECE-1_END-C
   ONTACT)
          THE ESTIMATED CONTACT FORCE ERROR IS OUTSIDE OF CONVERGENCE TOLERANCES.

 AVERAGE FORCE                       383.       TIME AVG. FORCE        49.3    
 LARGEST RESIDUAL FORCE             1.319E+03   AT NODE        149   DOF  1
   INSTANCE: CAP-1                                                                           
 LARGEST INCREMENT OF DISP.         0.330       AT NODE          8   DOF  2
   INSTANCE: PISTON-1                                                                        
 LARGEST CORRECTION TO DISP.       -9.022E-02   AT NODE        519   DOF  2
   INSTANCE: CAP-1                                                                           
          FORCE     EQUILIBRIUM NOT ACHIEVED WITHIN TOLERANCE.

  NUMBER OF EQUATIONS =     9434     NUMBER OF FLOATING PT. OPERATIONS =  3.24E+07

  USING THE DIRECT SOLVER WITH  10 PROCESSORS

     CHECK POINT   START OF SOLVER    

     CHECK POINT  END OF SOLVER       

       ELAPSED USER TIME (SEC)      =  0.17000    
       ELAPSED SYSTEM TIME (SEC)    =  8.00000E-02
       ELAPSED TOTAL CPU TIME (SEC) =  0.25000    
       ELAPSED WALLCLOCK TIME (SEC) =          0
  
     ASYNCHRONOUS TRACKING ELEMENT LOOP STARTED
  

               CONVERGENCE CHECKS FOR EQUILIBRIUM ITERATION     2

   MAX. PENETRATION ERROR 6.62342E-06 AT NODE CAP-1.519 OF CONTACT PAIR 
   (ASSEMBLY_CAP-1_TRANSITION-AND-PUMP-CONTACT,ASSEMBLY_TRANSITION-PIECE-1_END-C
   ONTACT)
   MAX. CONTACT FORCE ERROR 2.07540     AT NODE CAP-1.519 OF CONTACT PAIR 
   (ASSEMBLY_CAP-1_TRANSITION-AND-PUMP-CONTACT,ASSEMBLY_TRANSITION-PIECE-1_END-C
   ONTACT)
          THE CONTACT CONSTRAINTS HAVE CONVERGED.

 AVERAGE FORCE                       337.       TIME AVG. FORCE        44.1    
 LARGEST RESIDUAL FORCE              149.       AT NODE        520   DOF  2
   INSTANCE: CAP-1                                                                           
 LARGEST INCREMENT OF DISP.         0.330       AT NODE          8   DOF  2
   INSTANCE: PISTON-1                                                                        
 LARGEST CORRECTION TO DISP.        1.767E-02   AT NODE          6   DOF  2
   INSTANCE: CAP-1                                                                           
          FORCE     EQUILIBRIUM NOT ACHIEVED WITHIN TOLERANCE.

  NUMBER OF EQUATIONS =     9434     NUMBER OF FLOATING PT. OPERATIONS =  3.24E+07

  USING THE DIRECT SOLVER WITH  10 PROCESSORS

     CHECK POINT   START OF SOLVER    

     CHECK POINT  END OF SOLVER       

       ELAPSED USER TIME (SEC)      =  0.23000    
       ELAPSED SYSTEM TIME (SEC)    =  4.00000E-02
       ELAPSED TOTAL CPU TIME (SEC) =  0.27000    
       ELAPSED WALLCLOCK TIME (SEC) =          0
  
     ASYNCHRONOUS TRACKING ELEMENT LOOP STARTED
  

               CONVERGENCE CHECKS FOR EQUILIBRIUM ITERATION     3

   MAX. PENETRATION ERROR 5.08836E-09 AT NODE CAP-1.519 OF CONTACT PAIR 
   (ASSEMBLY_CAP-1_TRANSITION-AND-PUMP-CONTACT,ASSEMBLY_TRANSITION-PIECE-1_END-C
   ONTACT)
   MAX. CONTACT FORCE ERROR 1.59545E-03 AT NODE CAP-1.519 OF CONTACT PAIR 
   (ASSEMBLY_CAP-1_TRANSITION-AND-PUMP-CONTACT,ASSEMBLY_TRANSITION-PIECE-1_END-C
   ONTACT)
          THE CONTACT CONSTRAINTS HAVE CONVERGED.

 AVERAGE FORCE                       341.       TIME AVG. FORCE        44.5    
 LARGEST RESIDUAL FORCE              2.74       AT NODE         69   DOF  1
   INSTANCE: CAP-1                                                                           
 LARGEST INCREMENT OF DISP.         0.330       AT NODE          8   DOF  2
   INSTANCE: PISTON-1                                                                        
 LARGEST CORRECTION TO DISP.        1.583E-03   AT NODE         69   DOF  2
   INSTANCE: CAP-1                                                                           
          FORCE     EQUILIBRIUM NOT ACHIEVED WITHIN TOLERANCE.

  NUMBER OF EQUATIONS =     9434     NUMBER OF FLOATING PT. OPERATIONS =  3.24E+07

  USING THE DIRECT SOLVER WITH  10 PROCESSORS

     CHECK POINT   START OF SOLVER    

     CHECK POINT  END OF SOLVER       

       ELAPSED USER TIME (SEC)      =  0.17000    
       ELAPSED SYSTEM TIME (SEC)    =  9.00000E-02
       ELAPSED TOTAL CPU TIME (SEC) =  0.26000    
       ELAPSED WALLCLOCK TIME (SEC) =          0
  
     ASYNCHRONOUS TRACKING ELEMENT LOOP STARTED
  

               CONVERGENCE CHECKS FOR EQUILIBRIUM ITERATION     4

   MAX. PENETRATION ERROR -24.8236E-12  AT NODE CAP-1.519 OF CONTACT PAIR 
   (ASSEMBLY_CAP-1_TRANSITION-AND-PUMP-CONTACT,ASSEMBLY_TRANSITION-PIECE-1_END-C
   ONTACT)
   MAX. CONTACT FORCE ERROR -7.78329E-06 AT NODE CAP-1.519 OF CONTACT PAIR 
   (ASSEMBLY_CAP-1_TRANSITION-AND-PUMP-CONTACT,ASSEMBLY_TRANSITION-PIECE-1_END-C
   ONTACT)
          THE CONTACT CONSTRAINTS HAVE CONVERGED.

 AVERAGE FORCE                       341.       TIME AVG. FORCE        44.6    
 LARGEST RESIDUAL FORCE            -3.383E-02   AT NODE         69   DOF  2
   INSTANCE: CAP-1                                                                           
 LARGEST INCREMENT OF DISP.         0.330       AT NODE          8   DOF  2
   INSTANCE: PISTON-1                                                                        
 LARGEST CORRECTION TO DISP.        1.990E-05   AT NODE          1   DOF  2
   INSTANCE: CAP-1                                                                           
          THE FORCE     EQUILIBRIUM EQUATIONS HAVE CONVERGED

 ITERATION SUMMARY FOR THE INCREMENT:   4 TOTAL ITERATIONS, OF WHICH
   0 ARE SEVERE DISCONTINUITY ITERATIONS AND  4 ARE EQUILIBRIUM ITERATIONS.

 TIME INCREMENT COMPLETED  1.000E-02,  FRACTION OF STEP COMPLETED  0.110    
 STEP TIME COMPLETED       0.110    ,  TOTAL TIME COMPLETED        0.110    
  
     ASYNCHRONOUS OUTPUT DATABASE FRAME FLUSH STARTED
  


  INCREMENT    12 STARTS. ATTEMPT NUMBER  1, TIME INCREMENT  1.000E-02
  
     ASYNCHRONOUS TRACKING ELEMENT LOOP STARTED
  

  NUMBER OF EQUATIONS =     9434     NUMBER OF FLOATING PT. OPERATIONS =  3.26E+07

  USING THE DIRECT SOLVER WITH  10 PROCESSORS

     CHECK POINT   START OF SOLVER    

     CHECK POINT  END OF SOLVER       

       ELAPSED USER TIME (SEC)      =  0.19000    
       ELAPSED SYSTEM TIME (SEC)    =  7.00000E-02
       ELAPSED TOTAL CPU TIME (SEC) =  0.26000    
       ELAPSED WALLCLOCK TIME (SEC) =          0
  
     ASYNCHRONOUS TRACKING ELEMENT LOOP STARTED
  

                    6 SEVERE DISCONTINUITIES OCCURRED DURING THIS ITERATION.
                    3 POINTS CHANGED FROM OPEN TO CLOSED
                    3 POINTS CHANGED FROM STICKING TO SLIPPING

               CONVERGENCE CHECKS FOR SEVERE DISCONTINUITY ITERATION     1

   MAX. PENETRATION ERROR 30.1741E-03  AT NODE CAP-1.1 OF CONTACT PAIR 
   (ASSEMBLY_CAP-1_TRANSITION-AND-PUMP-CONTACT,ASSEMBLY_TRANSITION-PIECE-1_END-C
   ONTACT)
   MAX. CONTACT FORCE ERROR 10.1201E+03  AT NODE CAP-1.1 OF CONTACT PAIR 
   (ASSEMBLY_CAP-1_TRANSITION-AND-PUMP-CONTACT,ASSEMBLY_TRANSITION-PIECE-1_END-C
   ONTACT)
          PENETRATION ERROR TOO LARGE COMPARED TO DISPLACEMENT INCREMENT.

 AVERAGE FORCE                       444.       TIME AVG. FORCE        84.6    
 LARGEST RESIDUAL FORCE            -2.164E+03   AT NODE        145   DOF  2
   INSTANCE: CAP-1                                                                           
 LARGEST INCREMENT OF DISP.         0.334       AT NODE          6   DOF  2
   INSTANCE: CAP-1                                                                           
 LARGEST CORRECTION TO DISP.        6.953E-02   AT NODE         69   DOF  2
   INSTANCE: CAP-1                                                                           
          FORCE     EQUILIBRIUM NOT ACHIEVED WITHIN TOLERANCE.

  NUMBER OF EQUATIONS =     9434     NUMBER OF FLOATING PT. OPERATIONS =  3.26E+07

  USING THE DIRECT SOLVER WITH  10 PROCESSORS

     CHECK POINT   START OF SOLVER    

     CHECK POINT  END OF SOLVER       

       ELAPSED USER TIME (SEC)      =  0.21000    
       ELAPSED SYSTEM TIME (SEC)    =  4.00000E-02
       ELAPSED TOTAL CPU TIME (SEC) =  0.25000    
       ELAPSED WALLCLOCK TIME (SEC) =          0
  
     ASYNCHRONOUS TRACKING ELEMENT LOOP STARTED
  

                    1 SEVERE DISCONTINUITIES OCCURRED DURING THIS ITERATION.
                    1 POINTS CHANGED FROM CLOSED TO OPEN

               CONVERGENCE CHECKS FOR SEVERE DISCONTINUITY ITERATION     2

   MAX. PENETRATION ERROR 674.650E-06   AT NODE CAP-1.1 OF CONTACT PAIR 
   (ASSEMBLY_CAP-1_TRANSITION-AND-PUMP-CONTACT,ASSEMBLY_TRANSITION-PIECE-1_END-C
   ONTACT)
   MAX. CONTACT FORCE ERROR -3.78597E+03 AT NODE CAP-1.149 OF CONTACT PAIR 
   (ASSEMBLY_CAP-1_TRANSITION-AND-PUMP-CONTACT,ASSEMBLY_TRANSITION-PIECE-1_END-C
   ONTACT)
          THE ESTIMATED CONTACT FORCE ERROR IS OUTSIDE OF CONVERGENCE TOLERANCES.

 AVERAGE FORCE                       491.       TIME AVG. FORCE        89.2    
 LARGEST RESIDUAL FORCE             3.884E+03   AT NODE          6   DOF  1
   INSTANCE: PUMP-TUBE-1                                                                     
 LARGEST INCREMENT OF DISP.         0.333       AT NODE          8   DOF  2
   INSTANCE: PISTON-1                                                                        
 LARGEST CORRECTION TO DISP.       -3.958E-02   AT NODE          1   DOF  2
   INSTANCE: CAP-1                                                                           
          FORCE     EQUILIBRIUM NOT ACHIEVED WITHIN TOLERANCE.

  NUMBER OF EQUATIONS =     9434     NUMBER OF FLOATING PT. OPERATIONS =  3.26E+07

  USING THE DIRECT SOLVER WITH  10 PROCESSORS

     CHECK POINT   START OF SOLVER    

     CHECK POINT  END OF SOLVER       

       ELAPSED USER TIME (SEC)      =  0.20000    
       ELAPSED SYSTEM TIME (SEC)    =  5.00000E-02
       ELAPSED TOTAL CPU TIME (SEC) =  0.25000    
       ELAPSED WALLCLOCK TIME (SEC) =          0
  
     ASYNCHRONOUS TRACKING ELEMENT LOOP STARTED
  

                    1 SEVERE DISCONTINUITIES OCCURRED DURING THIS ITERATION.
                    1 POINTS CHANGED FROM CLOSED TO OPEN

               CONVERGENCE CHECKS FOR SEVERE DISCONTINUITY ITERATION     3

   MAX. PENETRATION ERROR 98.3414E-06  AT NODE CAP-1.1 OF CONTACT PAIR 
   (ASSEMBLY_CAP-1_TRANSITION-AND-PUMP-CONTACT,ASSEMBLY_TRANSITION-PIECE-1_END-C
   ONTACT)
   MAX. CONTACT FORCE ERROR -1.88730E+03 AT NODE CAP-1.149 OF CONTACT PAIR 
   (ASSEMBLY_CAP-1_TRANSITION-AND-PUMP-CONTACT,ASSEMBLY_PUMP-TUBE-1_PISTON-CONTA
   CT)
          THE ESTIMATED CONTACT FORCE ERROR IS OUTSIDE OF CONVERGENCE TOLERANCES.

 AVERAGE FORCE                       449.       TIME AVG. FORCE        85.1    
 LARGEST RESIDUAL FORCE            -1.311E+03   AT NODE        149   DOF  1
   INSTANCE: CAP-1                                                                           
 LARGEST INCREMENT OF DISP.         0.337       AT NODE          6   DOF  2
   INSTANCE: CAP-1                                                                           
 LARGEST CORRECTION TO DISP.        4.186E-02   AT NODE          1   DOF  2
   INSTANCE: CAP-1                                                                           
          FORCE     EQUILIBRIUM NOT ACHIEVED WITHIN TOLERANCE.

  NUMBER OF EQUATIONS =     9434     NUMBER OF FLOATING PT. OPERATIONS =  3.26E+07

  USING THE DIRECT SOLVER WITH  10 PROCESSORS

     CHECK POINT   START OF SOLVER    

     CHECK POINT  END OF SOLVER       

       ELAPSED USER TIME (SEC)      =  0.18000    
       ELAPSED SYSTEM TIME (SEC)    =  8.00000E-02
       ELAPSED TOTAL CPU TIME (SEC) =  0.26000    
       ELAPSED WALLCLOCK TIME (SEC) =          0
  
     ASYNCHRONOUS TRACKING ELEMENT LOOP STARTED
  

               CONVERGENCE CHECKS FOR EQUILIBRIUM ITERATION     1

   MAX. PENETRATION ERROR 5.46509E-06 AT NODE CAP-1.1 OF CONTACT PAIR 
   (ASSEMBLY_CAP-1_TRANSITION-AND-PUMP-CONTACT,ASSEMBLY_TRANSITION-PIECE-1_END-C
   ONTACT)
   MAX. CONTACT FORCE ERROR 1.82364     AT NODE CAP-1.1 OF CONTACT PAIR 
   (ASSEMBLY_CAP-1_TRANSITION-AND-PUMP-CONTACT,ASSEMBLY_TRANSITION-PIECE-1_END-C
   ONTACT)
          THE CONTACT CONSTRAINTS HAVE CONVERGED.

 AVERAGE FORCE                       466.       TIME AVG. FORCE        86.7    
 LARGEST RESIDUAL FORCE             -40.8       AT NODE        147   DOF  2
   INSTANCE: CAP-1                                                                           
 LARGEST INCREMENT OF DISP.         0.339       AT NODE          6   DOF  2
   INSTANCE: CAP-1                                                                           
 LARGEST CORRECTION TO DISP.       -1.773E-02   AT NODE        149   DOF  1
   INSTANCE: CAP-1                                                                           
          FORCE     EQUILIBRIUM NOT ACHIEVED WITHIN TOLERANCE.

  NUMBER OF EQUATIONS =     9434     NUMBER OF FLOATING PT. OPERATIONS =  3.26E+07

  USING THE DIRECT SOLVER WITH  10 PROCESSORS

     CHECK POINT   START OF SOLVER    

     CHECK POINT  END OF SOLVER       

       ELAPSED USER TIME (SEC)      =  0.22000    
       ELAPSED SYSTEM TIME (SEC)    =  6.00000E-02
       ELAPSED TOTAL CPU TIME (SEC) =  0.28000    
       ELAPSED WALLCLOCK TIME (SEC) =          0
  
     ASYNCHRONOUS TRACKING ELEMENT LOOP STARTED
  

               CONVERGENCE CHECKS FOR EQUILIBRIUM ITERATION     2

   MAX. PENETRATION ERROR -998.554E-09   AT NODE CAP-1.1 OF CONTACT PAIR 
   (ASSEMBLY_CAP-1_TRANSITION-AND-PUMP-CONTACT,ASSEMBLY_TRANSITION-PIECE-1_END-C
   ONTACT)
   MAX. CONTACT FORCE ERROR -333.160E-03   AT NODE CAP-1.1 OF CONTACT PAIR 
   (ASSEMBLY_CAP-1_TRANSITION-AND-PUMP-CONTACT,ASSEMBLY_TRANSITION-PIECE-1_END-C
   ONTACT)
          THE CONTACT CONSTRAINTS HAVE CONVERGED.

 AVERAGE FORCE                       466.       TIME AVG. FORCE        86.8    
 LARGEST RESIDUAL FORCE            -0.647       AT NODE          1   DOF  2
   INSTANCE: CAP-1                                                                           
 LARGEST INCREMENT OF DISP.         0.338       AT NODE          6   DOF  2
   INSTANCE: CAP-1                                                                           
 LARGEST CORRECTION TO DISP.       -9.857E-04   AT NODE          1   DOF  2
   INSTANCE: CAP-1                                                                           
          FORCE     EQUILIBRIUM NOT ACHIEVED WITHIN TOLERANCE.

  NUMBER OF EQUATIONS =     9434     NUMBER OF FLOATING PT. OPERATIONS =  3.26E+07

  USING THE DIRECT SOLVER WITH  10 PROCESSORS

     CHECK POINT   START OF SOLVER    

     CHECK POINT  END OF SOLVER       

       ELAPSED USER TIME (SEC)      =  0.20000    
       ELAPSED SYSTEM TIME (SEC)    =  7.00000E-02
       ELAPSED TOTAL CPU TIME (SEC) =  0.27000    
       ELAPSED WALLCLOCK TIME (SEC) =          0
  
     ASYNCHRONOUS TRACKING ELEMENT LOOP STARTED
  

               CONVERGENCE CHECKS FOR EQUILIBRIUM ITERATION     3

   MAX. PENETRATION ERROR -6.29112E-09 AT NODE CAP-1.1 OF CONTACT PAIR 
   (ASSEMBLY_CAP-1_TRANSITION-AND-PUMP-CONTACT,ASSEMBLY_TRANSITION-PIECE-1_END-C
   ONTACT)
   MAX. CONTACT FORCE ERROR -2.09900E-03 AT NODE CAP-1.1 OF CONTACT PAIR 
   (ASSEMBLY_CAP-1_TRANSITION-AND-PUMP-CONTACT,ASSEMBLY_TRANSITION-PIECE-1_END-C
   ONTACT)
          THE CONTACT CONSTRAINTS HAVE CONVERGED.

 AVERAGE FORCE                       467.       TIME AVG. FORCE        86.8    
 LARGEST RESIDUAL FORCE             1.095E-02   AT NODE        145   DOF  2
   INSTANCE: CAP-1                                                                           
 LARGEST INCREMENT OF DISP.         0.338       AT NODE          6   DOF  2
   INSTANCE: CAP-1                                                                           
 LARGEST CORRECTION TO DISP.        1.420E-05   AT NODE         69   DOF  2
   INSTANCE: CAP-1                                                                           
          THE FORCE     EQUILIBRIUM EQUATIONS HAVE CONVERGED

 ITERATION SUMMARY FOR THE INCREMENT:   6 TOTAL ITERATIONS, OF WHICH
   3 ARE SEVERE DISCONTINUITY ITERATIONS AND  3 ARE EQUILIBRIUM ITERATIONS.

 TIME INCREMENT COMPLETED  1.000E-02,  FRACTION OF STEP COMPLETED  0.120    
 STEP TIME COMPLETED       0.120    ,  TOTAL TIME COMPLETED        0.120    
  
     ASYNCHRONOUS OUTPUT DATABASE FRAME FLUSH STARTED
  


  INCREMENT    13 STARTS. ATTEMPT NUMBER  1, TIME INCREMENT  1.000E-02
  
     ASYNCHRONOUS TRACKING ELEMENT LOOP STARTED
  

  NUMBER OF EQUATIONS =     9434     NUMBER OF FLOATING PT. OPERATIONS =  3.17E+07

  USING THE DIRECT SOLVER WITH  10 PROCESSORS

     CHECK POINT   START OF SOLVER    

     CHECK POINT  END OF SOLVER       

       ELAPSED USER TIME (SEC)      =  0.18000    
       ELAPSED SYSTEM TIME (SEC)    =  9.00000E-02
       ELAPSED TOTAL CPU TIME (SEC) =  0.27000    
       ELAPSED WALLCLOCK TIME (SEC) =          0
  
     ASYNCHRONOUS TRACKING ELEMENT LOOP STARTED
  

                    1 SEVERE DISCONTINUITIES OCCURRED DURING THIS ITERATION.
                    1 POINTS CHANGED FROM CLOSED TO OPEN

               CONVERGENCE CHECKS FOR SEVERE DISCONTINUITY ITERATION     1

   MAX. PENETRATION ERROR 448.200E-06   AT NODE CAP-1.1 OF CONTACT PAIR 
   (ASSEMBLY_CAP-1_TRANSITION-AND-PUMP-CONTACT,ASSEMBLY_TRANSITION-PIECE-1_END-C
   ONTACT)
   MAX. CONTACT FORCE ERROR 202.992       AT NODE CAP-1.1 OF CONTACT PAIR 
   (ASSEMBLY_CAP-1_TRANSITION-AND-PUMP-CONTACT,ASSEMBLY_TRANSITION-PIECE-1_END-C
   ONTACT)
          THE ESTIMATED CONTACT FORCE ERROR IS OUTSIDE OF CONVERGENCE TOLERANCES.

 AVERAGE FORCE                       547.       TIME AVG. FORCE        129.    
 LARGEST RESIDUAL FORCE              488.       AT NODE        145   DOF  2
   INSTANCE: CAP-1                                                                           
 LARGEST INCREMENT OF DISP.         0.349       AT NODE        218   DOF  2
   INSTANCE: CAP-1                                                                           
 LARGEST CORRECTION TO DISP.       -5.082E-02   AT NODE          1   DOF  1
   INSTANCE: CAP-1                                                                           
          FORCE     EQUILIBRIUM NOT ACHIEVED WITHIN TOLERANCE.

  NUMBER OF EQUATIONS =     9434     NUMBER OF FLOATING PT. OPERATIONS =  3.16E+07

  USING THE DIRECT SOLVER WITH  10 PROCESSORS

     CHECK POINT   START OF SOLVER    

     CHECK POINT  END OF SOLVER       

       ELAPSED USER TIME (SEC)      =  0.20000    
       ELAPSED SYSTEM TIME (SEC)    =  6.00000E-02
       ELAPSED TOTAL CPU TIME (SEC) =  0.26000    
       ELAPSED WALLCLOCK TIME (SEC) =          0
  
     ASYNCHRONOUS TRACKING ELEMENT LOOP STARTED
  

               CONVERGENCE CHECKS FOR EQUILIBRIUM ITERATION     1

   MAX. PENETRATION ERROR -637.487E-06   AT NODE CAP-1.1 OF CONTACT PAIR 
   (ASSEMBLY_CAP-1_TRANSITION-AND-PUMP-CONTACT,ASSEMBLY_TRANSITION-PIECE-1_END-C
   ONTACT)
   MAX. CONTACT FORCE ERROR -215.024       AT NODE CAP-1.1 OF CONTACT PAIR 
   (ASSEMBLY_CAP-1_TRANSITION-AND-PUMP-CONTACT,ASSEMBLY_TRANSITION-PIECE-1_END-C
   ONTACT)
          THE ESTIMATED CONTACT FORCE ERROR IS OUTSIDE OF CONVERGENCE TOLERANCES.

 AVERAGE FORCE                       541.       TIME AVG. FORCE        128.    
 LARGEST RESIDUAL FORCE             -68.8       AT NODE        519   DOF  1
   INSTANCE: CAP-1                                                                           
 LARGEST INCREMENT OF DISP.         0.350       AT NODE          6   DOF  2
   INSTANCE: CAP-1                                                                           
 LARGEST CORRECTION TO DISP.       -1.747E-02   AT NODE        519   DOF  2
   INSTANCE: CAP-1                                                                           
          FORCE     EQUILIBRIUM NOT ACHIEVED WITHIN TOLERANCE.

  NUMBER OF EQUATIONS =     9434     NUMBER OF FLOATING PT. OPERATIONS =  3.16E+07

  USING THE DIRECT SOLVER WITH  10 PROCESSORS

     CHECK POINT   START OF SOLVER    

     CHECK POINT  END OF SOLVER       

       ELAPSED USER TIME (SEC)      =  0.21000    
       ELAPSED SYSTEM TIME (SEC)    =  5.00000E-02
       ELAPSED TOTAL CPU TIME (SEC) =  0.26000    
       ELAPSED WALLCLOCK TIME (SEC) =          0
  
     ASYNCHRONOUS TRACKING ELEMENT LOOP STARTED
  

               CONVERGENCE CHECKS FOR EQUILIBRIUM ITERATION     2

   MAX. PENETRATION ERROR -350.253E-09   AT NODE CAP-1.1 OF CONTACT PAIR 
   (ASSEMBLY_CAP-1_TRANSITION-AND-PUMP-CONTACT,ASSEMBLY_TRANSITION-PIECE-1_END-C
   ONTACT)
   MAX. CONTACT FORCE ERROR -118.410E-03   AT NODE CAP-1.1 OF CONTACT PAIR 
   (ASSEMBLY_CAP-1_TRANSITION-AND-PUMP-CONTACT,ASSEMBLY_TRANSITION-PIECE-1_END-C
   ONTACT)
          THE CONTACT CONSTRAINTS HAVE CONVERGED.

 AVERAGE FORCE                       541.       TIME AVG. FORCE        128.    
 LARGEST RESIDUAL FORCE             -3.72       AT NODE        519   DOF  1
   INSTANCE: CAP-1                                                                           
 LARGEST INCREMENT OF DISP.         0.351       AT NODE          6   DOF  2
   INSTANCE: CAP-1                                                                           
 LARGEST CORRECTION TO DISP.        3.504E-03   AT NODE        519   DOF  2
   INSTANCE: CAP-1                                                                           
          FORCE     EQUILIBRIUM NOT ACHIEVED WITHIN TOLERANCE.

  NUMBER OF EQUATIONS =     9434     NUMBER OF FLOATING PT. OPERATIONS =  3.16E+07

  USING THE DIRECT SOLVER WITH  10 PROCESSORS

     CHECK POINT   START OF SOLVER    

     CHECK POINT  END OF SOLVER       

       ELAPSED USER TIME (SEC)      =  0.20000    
       ELAPSED SYSTEM TIME (SEC)    =  7.00000E-02
       ELAPSED TOTAL CPU TIME (SEC) =  0.27000    
       ELAPSED WALLCLOCK TIME (SEC) =          0
  
     ASYNCHRONOUS TRACKING ELEMENT LOOP STARTED
  

               CONVERGENCE CHECKS FOR EQUILIBRIUM ITERATION     3

   MAX. PENETRATION ERROR 278.613E-12   AT NODE CAP-1.519 OF CONTACT PAIR 
   (ASSEMBLY_CAP-1_TRANSITION-AND-PUMP-CONTACT,ASSEMBLY_TRANSITION-PIECE-1_END-C
   ONTACT)
   MAX. CONTACT FORCE ERROR 104.931E-06   AT NODE CAP-1.519 OF CONTACT PAIR 
   (ASSEMBLY_CAP-1_TRANSITION-AND-PUMP-CONTACT,ASSEMBLY_TRANSITION-PIECE-1_END-C
   ONTACT)
          THE CONTACT CONSTRAINTS HAVE CONVERGED.

 AVERAGE FORCE                       541.       TIME AVG. FORCE        128.    
 LARGEST RESIDUAL FORCE             0.121       AT NODE        147   DOF  2
   INSTANCE: CAP-1                                                                           
 LARGEST INCREMENT OF DISP.         0.351       AT NODE          6   DOF  2
   INSTANCE: CAP-1                                                                           
[...]
 LARGEST RESIDUAL FORCE              46.2       AT NODE         31   DOF  1
   INSTANCE: CAP-1                                                                           
 LARGEST INCREMENT OF DISP.         0.201       AT NODE         39   DOF  2
   INSTANCE: CAP-1                                                                           
 LARGEST CORRECTION TO DISP.       -3.185E-02   AT NODE          7   DOF  2
   INSTANCE: CAP-1                                                                           
          FORCE     EQUILIBRIUM NOT ACHIEVED WITHIN TOLERANCE.

  NUMBER OF EQUATIONS =     9434     NUMBER OF FLOATING PT. OPERATIONS =  3.24E+07

  USING THE DIRECT SOLVER WITH  10 PROCESSORS

     CHECK POINT   START OF SOLVER    

     CHECK POINT  END OF SOLVER       

       ELAPSED USER TIME (SEC)      =  0.19000    
       ELAPSED SYSTEM TIME (SEC)    =  9.00000E-02
       ELAPSED TOTAL CPU TIME (SEC) =  0.28000    
       ELAPSED WALLCLOCK TIME (SEC) =          1
 

 ***WARNING: THE SYSTEM MATRIX HAS 2 NEGATIVE EIGENVALUES.
             EXPLANATIONS ARE SUGGESTED AFTER THE FIRST OCCURRENCE OF THIS MESSAGE.
  
     ASYNCHRONOUS TRACKING ELEMENT LOOP STARTED
  

               CONVERGENCE CHECKS FOR EQUILIBRIUM ITERATION     1

   MAX. PENETRATION ERROR 112.329E-06   AT NODE CAP-1.6 OF CONTACT PAIR 
   (ASSEMBLY_CAP-1_TRANSITION-AND-PUMP-CONTACT,ASSEMBLY_TRANSITION-PIECE-1_END-C
   ONTACT)
   MAX. CONTACT FORCE ERROR 58.3634      AT NODE CAP-1.6 OF CONTACT PAIR 
   (ASSEMBLY_CAP-1_TRANSITION-AND-PUMP-CONTACT,ASSEMBLY_TRANSITION-PIECE-1_END-C
   ONTACT)
          THE CONTACT CONSTRAINTS HAVE CONVERGED.

 AVERAGE FORCE                      2.314E+03   TIME AVG. FORCE        607.    
 LARGEST RESIDUAL FORCE              16.5       AT NODE        217   DOF  2
   INSTANCE: CAP-1                                                                           
 LARGEST INCREMENT OF DISP.         0.199       AT NODE        214   DOF  2
   INSTANCE: CAP-1                                                                           
 LARGEST CORRECTION TO DISP.       -1.499E-02   AT NODE          6   DOF  2
   INSTANCE: CAP-1                                                                           
          FORCE     EQUILIBRIUM NOT ACHIEVED WITHIN TOLERANCE.

  NUMBER OF EQUATIONS =     9434     NUMBER OF FLOATING PT. OPERATIONS =  3.24E+07

  USING THE DIRECT SOLVER WITH  10 PROCESSORS

     CHECK POINT   START OF SOLVER    

     CHECK POINT  END OF SOLVER       

       ELAPSED USER TIME (SEC)      =  0.21000    
       ELAPSED SYSTEM TIME (SEC)    =  7.00000E-02
       ELAPSED TOTAL CPU TIME (SEC) =  0.28000    
       ELAPSED WALLCLOCK TIME (SEC) =          0
 

 ***WARNING: THE SYSTEM MATRIX HAS 2 NEGATIVE EIGENVALUES.
             EXPLANATIONS ARE SUGGESTED AFTER THE FIRST OCCURRENCE OF THIS MESSAGE.
  
     ASYNCHRONOUS TRACKING ELEMENT LOOP STARTED
  

               CONVERGENCE CHECKS FOR EQUILIBRIUM ITERATION     2

   MAX. PENETRATION ERROR -107.718E-09   AT NODE CAP-1.153 OF CONTACT PAIR 
   (ASSEMBLY_CAP-1_TRANSITION-AND-PUMP-CONTACT,ASSEMBLY_TRANSITION-PIECE-1_END-C
   ONTACT)
   MAX. CONTACT FORCE ERROR -77.2104E-03  AT NODE CAP-1.153 OF CONTACT PAIR 
   (ASSEMBLY_CAP-1_TRANSITION-AND-PUMP-CONTACT,ASSEMBLY_TRANSITION-PIECE-1_END-C
   ONTACT)
          THE CONTACT CONSTRAINTS HAVE CONVERGED.

 AVERAGE FORCE                      2.319E+03   TIME AVG. FORCE        607.    
 LARGEST RESIDUAL FORCE             0.166       AT NODE        216   DOF  2
   INSTANCE: CAP-1                                                                           
 LARGEST INCREMENT OF DISP.         0.199       AT NODE        214   DOF  2
   INSTANCE: CAP-1                                                                           
 LARGEST CORRECTION TO DISP.       -8.734E-04   AT NODE          6   DOF  2
   INSTANCE: CAP-1                                                                           
          THE FORCE     EQUILIBRIUM EQUATIONS HAVE CONVERGED
          TIME INCREMENT MAY NOW INCREASE TO    8.438E-03

 ITERATION SUMMARY FOR THE INCREMENT:   3 TOTAL ITERATIONS, OF WHICH
   1 ARE SEVERE DISCONTINUITY ITERATIONS AND  2 ARE EQUILIBRIUM ITERATIONS.

 TIME INCREMENT COMPLETED  4.375E-03,  FRACTION OF STEP COMPLETED  0.980    
 STEP TIME COMPLETED       0.980    ,  TOTAL TIME COMPLETED        0.980    
  
     ASYNCHRONOUS OUTPUT DATABASE FRAME FLUSH STARTED
  


  INCREMENT   119 STARTS. ATTEMPT NUMBER  1, TIME INCREMENT  8.438E-03
  
     ASYNCHRONOUS TRACKING ELEMENT LOOP STARTED
  

  NUMBER OF EQUATIONS =     9434     NUMBER OF FLOATING PT. OPERATIONS =  3.41E+07

  USING THE DIRECT SOLVER WITH  10 PROCESSORS

     CHECK POINT   START OF SOLVER    

     CHECK POINT  END OF SOLVER       

       ELAPSED USER TIME (SEC)      =  0.20000    
       ELAPSED SYSTEM TIME (SEC)    =  7.00000E-02
       ELAPSED TOTAL CPU TIME (SEC) =  0.27000    
       ELAPSED WALLCLOCK TIME (SEC) =          0
  
     ASYNCHRONOUS TRACKING ELEMENT LOOP STARTED
  

               CONVERGENCE CHECKS FOR EQUILIBRIUM ITERATION     1

   MAX. PENETRATION ERROR 516.041E-06   AT NODE CAP-1.6 OF CONTACT PAIR 
   (ASSEMBLY_CAP-1_TRANSITION-AND-PUMP-CONTACT,ASSEMBLY_TRANSITION-PIECE-1_END-C
   ONTACT)
   MAX. CONTACT FORCE ERROR 282.985       AT NODE CAP-1.6 OF CONTACT PAIR 
   (ASSEMBLY_CAP-1_TRANSITION-AND-PUMP-CONTACT,ASSEMBLY_TRANSITION-PIECE-1_END-C
   ONTACT)
          THE CONTACT CONSTRAINTS HAVE CONVERGED.

 AVERAGE FORCE                      2.395E+03   TIME AVG. FORCE        622.    
 LARGEST RESIDUAL FORCE             -375.       AT NODE        521   DOF  1
   INSTANCE: CAP-1                                                                           
 LARGEST INCREMENT OF DISP.         0.295       AT NODE        210   DOF  2
   INSTANCE: CAP-1                                                                           
 LARGEST CORRECTION TO DISP.       -0.118       AT NODE          6   DOF  2
   INSTANCE: CAP-1                                                                           
          FORCE     EQUILIBRIUM NOT ACHIEVED WITHIN TOLERANCE.

  NUMBER OF EQUATIONS =     9434     NUMBER OF FLOATING PT. OPERATIONS =  3.41E+07

  USING THE DIRECT SOLVER WITH  10 PROCESSORS

     CHECK POINT   START OF SOLVER    

     CHECK POINT  END OF SOLVER       

       ELAPSED USER TIME (SEC)      =  0.20000    
       ELAPSED SYSTEM TIME (SEC)    =  6.00000E-02
       ELAPSED TOTAL CPU TIME (SEC) =  0.26000    
       ELAPSED WALLCLOCK TIME (SEC) =          0
  
     ASYNCHRONOUS TRACKING ELEMENT LOOP STARTED
  

               CONVERGENCE CHECKS FOR EQUILIBRIUM ITERATION     2

   MAX. PENETRATION ERROR 10.9372E-06  AT NODE CAP-1.6 OF CONTACT PAIR 
   (ASSEMBLY_CAP-1_TRANSITION-AND-PUMP-CONTACT,ASSEMBLY_TRANSITION-PIECE-1_END-C
   ONTACT)
   MAX. CONTACT FORCE ERROR 5.98916     AT NODE CAP-1.6 OF CONTACT PAIR 
   (ASSEMBLY_CAP-1_TRANSITION-AND-PUMP-CONTACT,ASSEMBLY_TRANSITION-PIECE-1_END-C
   ONTACT)
          THE CONTACT CONSTRAINTS HAVE CONVERGED.

 AVERAGE FORCE                      2.412E+03   TIME AVG. FORCE        622.    
 LARGEST RESIDUAL FORCE             -3.37       AT NODE        217   DOF  1
   INSTANCE: CAP-1                                                                           
 LARGEST INCREMENT OF DISP.         0.292       AT NODE        210   DOF  2
   INSTANCE: CAP-1                                                                           
 LARGEST CORRECTION TO DISP.       -7.741E-03   AT NODE         69   DOF  2
   INSTANCE: CAP-1                                                                           
          FORCE     EQUILIBRIUM NOT ACHIEVED WITHIN TOLERANCE.

  NUMBER OF EQUATIONS =     9434     NUMBER OF FLOATING PT. OPERATIONS =  3.41E+07

  USING THE DIRECT SOLVER WITH  10 PROCESSORS

     CHECK POINT   START OF SOLVER    

     CHECK POINT  END OF SOLVER       

       ELAPSED USER TIME (SEC)      =  0.20000    
       ELAPSED SYSTEM TIME (SEC)    =  8.00000E-02
       ELAPSED TOTAL CPU TIME (SEC) =  0.28000    
       ELAPSED WALLCLOCK TIME (SEC) =          0
  
     ASYNCHRONOUS TRACKING ELEMENT LOOP STARTED
  

               CONVERGENCE CHECKS FOR EQUILIBRIUM ITERATION     3

   MAX. PENETRATION ERROR 261.412E-09   AT NODE CAP-1.153 OF CONTACT PAIR 
   (ASSEMBLY_CAP-1_TRANSITION-AND-PUMP-CONTACT,ASSEMBLY_TRANSITION-PIECE-1_END-C
   ONTACT)
   MAX. CONTACT FORCE ERROR 187.187E-03   AT NODE CAP-1.153 OF CONTACT PAIR 
   (ASSEMBLY_CAP-1_TRANSITION-AND-PUMP-CONTACT,ASSEMBLY_TRANSITION-PIECE-1_END-C
   ONTACT)
          THE CONTACT CONSTRAINTS HAVE CONVERGED.

 AVERAGE FORCE                      2.417E+03   TIME AVG. FORCE        622.    
 LARGEST RESIDUAL FORCE            -0.170       AT NODE        217   DOF  1
   INSTANCE: CAP-1                                                                           
 LARGEST INCREMENT OF DISP.         0.292       AT NODE        210   DOF  2
   INSTANCE: CAP-1                                                                           
 LARGEST CORRECTION TO DISP.        1.783E-04   AT NODE        215   DOF  1
   INSTANCE: CAP-1                                                                           
          THE FORCE     EQUILIBRIUM EQUATIONS HAVE CONVERGED
          TIME INCREMENT MAY NOW INCREASE TO    1.000E-02
          TIME INCREMENT REDUCED TO   1.562E-03 TO MEET NEXT OUTPUT TIME POINT

 ITERATION SUMMARY FOR THE INCREMENT:   3 TOTAL ITERATIONS, OF WHICH
   0 ARE SEVERE DISCONTINUITY ITERATIONS AND  3 ARE EQUILIBRIUM ITERATIONS.

 TIME INCREMENT COMPLETED  8.438E-03,  FRACTION OF STEP COMPLETED  0.988    
 STEP TIME COMPLETED       0.988    ,  TOTAL TIME COMPLETED        0.988    
  
     ASYNCHRONOUS OUTPUT DATABASE FRAME FLUSH STARTED
  


  INCREMENT   120 STARTS. ATTEMPT NUMBER  1, TIME INCREMENT  1.562E-03
  
     ASYNCHRONOUS TRACKING ELEMENT LOOP STARTED
  

  NUMBER OF EQUATIONS =     9434     NUMBER OF FLOATING PT. OPERATIONS =  3.41E+07

  USING THE DIRECT SOLVER WITH  10 PROCESSORS

     CHECK POINT   START OF SOLVER    

     CHECK POINT  END OF SOLVER       

       ELAPSED USER TIME (SEC)      =  0.18000    
       ELAPSED SYSTEM TIME (SEC)    =  8.00000E-02
       ELAPSED TOTAL CPU TIME (SEC) =  0.26000    
       ELAPSED WALLCLOCK TIME (SEC) =          0
  
     ASYNCHRONOUS TRACKING ELEMENT LOOP STARTED
  

               CONVERGENCE CHECKS FOR EQUILIBRIUM ITERATION     1

   MAX. PENETRATION ERROR 6.68728E-06 AT NODE CAP-1.31 OF CONTACT PAIR 
   (ASSEMBLY_CAP-1_TRANSITION-AND-PUMP-CONTACT,ASSEMBLY_PUMP-TUBE-1_PISTON-CONTA
   CT)
   MAX. CONTACT FORCE ERROR 5.32622     AT NODE CAP-1.31 OF CONTACT PAIR 
   (ASSEMBLY_CAP-1_TRANSITION-AND-PUMP-CONTACT,ASSEMBLY_PUMP-TUBE-1_PISTON-CONTA
   CT)
          THE CONTACT CONSTRAINTS HAVE CONVERGED.

 AVERAGE FORCE                      2.441E+03   TIME AVG. FORCE        638.    
 LARGEST RESIDUAL FORCE             -22.8       AT NODE        520   DOF  1
   INSTANCE: CAP-1                                                                           
 LARGEST INCREMENT OF DISP.         4.023E-02   AT NODE         40   DOF  2
   INSTANCE: CAP-1                                                                           
 LARGEST CORRECTION TO DISP.       -1.765E-02   AT NODE        217   DOF  2
   INSTANCE: CAP-1                                                                           
          FORCE     EQUILIBRIUM NOT ACHIEVED WITHIN TOLERANCE.

  NUMBER OF EQUATIONS =     9434     NUMBER OF FLOATING PT. OPERATIONS =  3.41E+07

  USING THE DIRECT SOLVER WITH  10 PROCESSORS

     CHECK POINT   START OF SOLVER    

     CHECK POINT  END OF SOLVER       

       ELAPSED USER TIME (SEC)      =  0.20000    
       ELAPSED SYSTEM TIME (SEC)    =  7.00000E-02
       ELAPSED TOTAL CPU TIME (SEC) =  0.27000    
       ELAPSED WALLCLOCK TIME (SEC) =          0
  
     ASYNCHRONOUS TRACKING ELEMENT LOOP STARTED
  

               CONVERGENCE CHECKS FOR EQUILIBRIUM ITERATION     2

   MAX. PENETRATION ERROR 341.324E-09   AT NODE CAP-1.153 OF CONTACT PAIR 
   (ASSEMBLY_CAP-1_TRANSITION-AND-PUMP-CONTACT,ASSEMBLY_TRANSITION-PIECE-1_END-C
   ONTACT)
   MAX. CONTACT FORCE ERROR -257.358E-03   AT NODE CAP-1.31 OF CONTACT PAIR 
   (ASSEMBLY_CAP-1_TRANSITION-AND-PUMP-CONTACT,ASSEMBLY_PUMP-TUBE-1_PISTON-CONTA
   CT)
          THE CONTACT CONSTRAINTS HAVE CONVERGED.

 AVERAGE FORCE                      2.445E+03   TIME AVG. FORCE        638.    
 LARGEST RESIDUAL FORCE            -7.635E-02   AT NODE        216   DOF  1
   INSTANCE: CAP-1                                                                           
 LARGEST INCREMENT OF DISP.         4.019E-02   AT NODE         40   DOF  2
   INSTANCE: CAP-1                                                                           
 LARGEST CORRECTION TO DISP.        1.607E-04   AT NODE          6   DOF  2
   INSTANCE: CAP-1                                                                           
          THE FORCE     EQUILIBRIUM EQUATIONS HAVE CONVERGED
          TIME INCREMENT MAY NOW INCREASE TO    1.000E-02

 ITERATION SUMMARY FOR THE INCREMENT:   2 TOTAL ITERATIONS, OF WHICH
   0 ARE SEVERE DISCONTINUITY ITERATIONS AND  2 ARE EQUILIBRIUM ITERATIONS.

 TIME INCREMENT COMPLETED  1.562E-03,  FRACTION OF STEP COMPLETED  0.990    
 STEP TIME COMPLETED       0.990    ,  TOTAL TIME COMPLETED        0.990    
  
     ASYNCHRONOUS OUTPUT DATABASE FRAME FLUSH STARTED
  


  INCREMENT   121 STARTS. ATTEMPT NUMBER  1, TIME INCREMENT  1.000E-02
  
     ASYNCHRONOUS TRACKING ELEMENT LOOP STARTED
  

  NUMBER OF EQUATIONS =     9434     NUMBER OF FLOATING PT. OPERATIONS =  3.41E+07

  USING THE DIRECT SOLVER WITH  10 PROCESSORS

     CHECK POINT   START OF SOLVER    

     CHECK POINT  END OF SOLVER       

       ELAPSED USER TIME (SEC)      =  0.21000    
       ELAPSED SYSTEM TIME (SEC)    =  6.00000E-02
       ELAPSED TOTAL CPU TIME (SEC) =  0.27000    
       ELAPSED WALLCLOCK TIME (SEC) =          0
  
     ASYNCHRONOUS TRACKING ELEMENT LOOP STARTED
  

                    1 SEVERE DISCONTINUITIES OCCURRED DURING THIS ITERATION.
                    1 POINTS CHANGED FROM CLOSED TO OPEN

               CONVERGENCE CHECKS FOR SEVERE DISCONTINUITY ITERATION     1

   MAX. PENETRATION ERROR 356.821E-06   AT NODE CAP-1.31 OF CONTACT PAIR 
   (ASSEMBLY_CAP-1_TRANSITION-AND-PUMP-CONTACT,ASSEMBLY_PUMP-TUBE-1_PISTON-CONTA
   CT)
   MAX. CONTACT FORCE ERROR 259.778       AT NODE CAP-1.31 OF CONTACT PAIR 
   (ASSEMBLY_CAP-1_TRANSITION-AND-PUMP-CONTACT,ASSEMBLY_PUMP-TUBE-1_PISTON-CONTA
   CT)
          THE CONTACT CONSTRAINT ERRORS ARE WITHIN THE TOLERANCES.

 AVERAGE FORCE                      2.631E+03   TIME AVG. FORCE        655.    
 LARGEST RESIDUAL FORCE              662.       AT NODE        153   DOF  1
   INSTANCE: CAP-1                                                                           
 LARGEST INCREMENT OF DISP.         0.163       AT NODE          7   DOF  2
   INSTANCE: CAP-1                                                                           
 LARGEST CORRECTION TO DISP.       -0.122       AT NODE        218   DOF  2
   INSTANCE: CAP-1                                                                           
          FORCE     EQUILIBRIUM NOT ACHIEVED WITHIN TOLERANCE.

  NUMBER OF EQUATIONS =     9434     NUMBER OF FLOATING PT. OPERATIONS =  3.41E+07

  USING THE DIRECT SOLVER WITH  10 PROCESSORS

     CHECK POINT   START OF SOLVER    

     CHECK POINT  END OF SOLVER       

       ELAPSED USER TIME (SEC)      =  0.19000    
       ELAPSED SYSTEM TIME (SEC)    =  7.00000E-02
       ELAPSED TOTAL CPU TIME (SEC) =  0.26000    
       ELAPSED WALLCLOCK TIME (SEC) =          0
  
     ASYNCHRONOUS TRACKING ELEMENT LOOP STARTED
  

               CONVERGENCE CHECKS FOR EQUILIBRIUM ITERATION     1

   MAX. PENETRATION ERROR 20.9833E-06  AT NODE CAP-1.153 OF CONTACT PAIR 
   (ASSEMBLY_CAP-1_TRANSITION-AND-PUMP-CONTACT,ASSEMBLY_TRANSITION-PIECE-1_END-C
   ONTACT)
   MAX. CONTACT FORCE ERROR 16.4469      AT NODE CAP-1.153 OF CONTACT PAIR 
   (ASSEMBLY_CAP-1_TRANSITION-AND-PUMP-CONTACT,ASSEMBLY_TRANSITION-PIECE-1_END-C
   ONTACT)
          THE CONTACT CONSTRAINTS HAVE CONVERGED.

 AVERAGE FORCE                      2.641E+03   TIME AVG. FORCE        655.    
 LARGEST RESIDUAL FORCE             -34.0       AT NODE        216   DOF  2
   INSTANCE: CAP-1                                                                           
 LARGEST INCREMENT OF DISP.         0.162       AT NODE          7   DOF  2
   INSTANCE: CAP-1                                                                           
 LARGEST CORRECTION TO DISP.       -7.716E-03   AT NODE        153   DOF  2
   INSTANCE: CAP-1                                                                           
          FORCE     EQUILIBRIUM NOT ACHIEVED WITHIN TOLERANCE.

  NUMBER OF EQUATIONS =     9434     NUMBER OF FLOATING PT. OPERATIONS =  3.41E+07

  USING THE DIRECT SOLVER WITH  10 PROCESSORS

     CHECK POINT   START OF SOLVER    

     CHECK POINT  END OF SOLVER       

       ELAPSED USER TIME (SEC)      =   1.1000    
       ELAPSED SYSTEM TIME (SEC)    =  5.00000E-02
       ELAPSED TOTAL CPU TIME (SEC) =   1.1500    
       ELAPSED WALLCLOCK TIME (SEC) =          0
  
     ASYNCHRONOUS TRACKING ELEMENT LOOP STARTED
  

               CONVERGENCE CHECKS FOR EQUILIBRIUM ITERATION     2

   MAX. PENETRATION ERROR 164.252E-09   AT NODE CAP-1.6 OF CONTACT PAIR 
   (ASSEMBLY_CAP-1_TRANSITION-AND-PUMP-CONTACT,ASSEMBLY_TRANSITION-PIECE-1_END-C
   ONTACT)
   MAX. CONTACT FORCE ERROR 101.717E-03   AT NODE CAP-1.31 OF CONTACT PAIR 
   (ASSEMBLY_CAP-1_TRANSITION-AND-PUMP-CONTACT,ASSEMBLY_PUMP-TUBE-1_PISTON-CONTA
   CT)
          THE CONTACT CONSTRAINTS HAVE CONVERGED.

 AVERAGE FORCE                      2.645E+03   TIME AVG. FORCE        655.    
 LARGEST RESIDUAL FORCE             -1.41       AT NODE        216   DOF  1
   INSTANCE: CAP-1                                                                           
 LARGEST INCREMENT OF DISP.         0.162       AT NODE          7   DOF  2
   INSTANCE: CAP-1                                                                           
 LARGEST CORRECTION TO DISP.        9.515E-04   AT NODE        218   DOF  2
   INSTANCE: CAP-1                                                                           
          THE FORCE     EQUILIBRIUM EQUATIONS HAVE CONVERGED

 ITERATION SUMMARY FOR THE INCREMENT:   3 TOTAL ITERATIONS, OF WHICH
   1 ARE SEVERE DISCONTINUITY ITERATIONS AND  2 ARE EQUILIBRIUM ITERATIONS.

 TIME INCREMENT COMPLETED  1.000E-02,  FRACTION OF STEP COMPLETED   1.00    
 STEP TIME COMPLETED        1.00    ,  TOTAL TIME COMPLETED         1.00    


          THE ANALYSIS HAS BEEN COMPLETED



     ANALYSIS SUMMARY:
     TOTAL OF        121  INCREMENTS
                       5  CUTBACKS IN AUTOMATIC INCREMENTATION
                     362  ITERATIONS INCLUDING CONTACT ITERATIONS IF PRESENT
                     362  PASSES THROUGH THE EQUATION SOLVER OF WHICH 
                     362  INVOLVE MATRIX DECOMPOSITION, INCLUDING
                       0  DECOMPOSITION(S) OF THE MASS MATRIX
                       1  REORDERING OF EQUATIONS TO MINIMIZE WAVEFRONT
                       0  ADDITIONAL RESIDUAL EVALUATIONS FOR LINE SEARCHES
                       0  ADDITIONAL OPERATOR EVALUATIONS FOR LINE SEARCHES
                       8  WARNING MESSAGES DURING USER INPUT PROCESSING
                      14  WARNING MESSAGES DURING ANALYSIS
                       0  ANALYSIS WARNINGS ARE NUMERICAL PROBLEM MESSAGES
                       5  ANALYSIS WARNINGS ARE NEGATIVE EIGENVALUE MESSAGES
                       0  ERROR MESSAGES



     JOB TIME SUMMARY
       USER TIME (SEC)      =   232.40    
       SYSTEM TIME (SEC)    =   59.250    
       TOTAL CPU TIME (SEC) =   291.65    
       WALLCLOCK TIME (SEC) =         93
