1

   Abaqus 6.14-1                                  Date 30-Sep-2021   Time 14:22:38
   For use at UNIVERSITY OF CAPE TOWN under license from Dassault Systemes or its subsidiary.

                                                                                 
                                                                                 
 STEP    1     INCREMENT     1     STEP TIME    0.00    


                        S T E P       1     D Y N A M I C   A N A L Y S I S - I M P L I C I T  I N T E G R A T I O N


                                                                                          

          DYNAMIC APPLICATION PACKED SCHEME IS                 MODERATE DISSIPATION
          HILBER-HUGHES-TAYLOR (HHT) TIME INTEGRATOR IS USED

     AUTOMATIC TIME CONTROL WITH -
          A SUGGESTED INITIAL TIME INCREMENT OF                3.000E-03
          AND A TOTAL TIME PERIOD OF                           3.000E-03
          THE MINIMUM TIME INCREMENT ALLOWED IS                3.000E-08
          THE MAXIMUM TIME INCREMENT ALLOWED IS                3.000E-03

          THE HALF-INCREMENT RESIDUALS WILL NOT BE CALCULATED

          HILBER-HUGHES-TAYLOR METHOD PARAMETERS:  ALPHA   IS  -0.414214    
                                                   BETA    IS   0.500000    
                                                   GAMMA   IS   0.914214    
          CONTACT IMPACT/RELEASE COMPUTATIONS ARE SKIPPED
          AGGRESSIVE   TIME INCREMENTATION IS USED
          STEP AMPLITUDE IS                                    STEP

 CONVERGENCE TOLERANCE PARAMETERS FOR FORCE    
     CRITERION FOR RESIDUAL FORCE     FOR A NONLINEAR PROBLEM          5.000E-03
     CRITERION FOR DISP.    CORRECTION IN A NONLINEAR PROBLEM          1.000E-02
     INITIAL VALUE OF TIME AVERAGE FORCE                               1.000E-02
     AVERAGE FORCE     IS TIME AVERAGE FORCE    
     ALTERNATE CRIT. FOR RESIDUAL FORCE     FOR A NONLINEAR PROBLEM    2.000E-02
     CRITERION FOR ZERO FORCE     RELATIVE TO TIME AVRG. FORCE         1.000E-05
     CRITERION FOR RESIDUAL FORCE     WHEN THERE IS ZERO FLUX          1.000E-05
     CRITERION FOR DISP.    CORRECTION WHEN THERE IS ZERO FLUX         1.000E-03
     CRITERION FOR RESIDUAL FORCE     FOR A LINEAR INCREMENT           1.000E-08
     FIELD CONVERSION RATIO                                             1.00    
     CRITERION FOR ZERO FORCE     REL. TO TIME AVRG. MAX. FORCE        1.000E-05
     CRITERION FOR ZERO DISP.    RELATIVE TO CHARACTERISTIC LENGTH     1.000E-08

     VOLUMETRIC STRAIN COMPATIBILITY TOLERANCE FOR HYBRID SOLIDS       1.000E-05
     AXIAL STRAIN COMPATIBILITY TOLERANCE FOR HYBRID BEAMS             1.000E-05
     TRANS. SHEAR STRAIN COMPATIBILITY TOLERANCE FOR HYBRID BEAMS      1.000E-05
     SOFT CONTACT CONSTRAINT COMPATIBILITY TOLERANCE FOR P>P0          5.000E-03
     SOFT CONTACT CONSTRAINT COMPATIBILITY TOLERANCE FOR P=0.0         0.100    
     CONTACT FORCE ERROR TOLERANCE FOR CONVERT SDI=YES                 1.00    
     DISPLACEMENT COMPATIBILITY TOLERANCE FOR DCOUP ELEMENTS           1.000E-05
     ROTATION COMPATIBILITY TOLERANCE FOR DCOUP ELEMENTS               1.000E-05

 EQUILIBRIUM WILL BE CHECKED FOR SEVERE DISCONTINUITY ITERATIONS

 TIME INCREMENTATION CONTROL PARAMETERS:
     FIRST EQUILIBRIUM ITERATION FOR CONSECUTIVE DIVERGENCE CHECK              4
     EQUILIBRIUM ITERATION AT WHICH LOG. CONVERGENCE RATE CHECK BEGINS         8
     EQUILIBRIUM ITERATION AFTER WHICH ALTERNATE RESIDUAL IS USED              9
     MAXIMUM EQUILIBRIUM ITERATIONS ALLOWED                                   16
     EQUILIBRIUM ITERATION COUNT FOR CUT-BACK IN NEXT INCREMENT               10
     MAXIMUM EQUILIB. ITERS IN TWO INCREMENTS FOR TIME INCREMENT INCREASE      4
     MAXIMUM ITERATIONS FOR SEVERE DISCONTINUITIES                            50
     MAXIMUM CUT-BACKS ALLOWED IN AN INCREMENT                                 5
     MAXIMUM DISCON. ITERS IN TWO INCREMENTS FOR TIME INCREMENT INCREASE      50
     MAXIMUM CONTACT AUGMENTATIONS FOR *SURFACE BEHAVIOR,AUGMENTED LAGRANGE   50
     CUT-BACK FACTOR AFTER DIVERGENCE                                 0.2500    
     CUT-BACK FACTOR FOR TOO SLOW CONVERGENCE                         0.5000    
     CUT-BACK FACTOR AFTER TOO MANY EQUILIBRIUM ITERATIONS            0.7500    
     CUT-BACK FACTOR AFTER TOO MANY SEVERE DISCONTINUITY ITERATIONS   0.2500    
     CUT-BACK FACTOR AFTER PROBLEMS IN ELEMENT ASSEMBLY               0.2500    
     INCREASE FACTOR AFTER TWO INCREMENTS THAT CONVERGE QUICKLY        1.500    
     MAX. TIME INCREMENT INCREASE FACTOR ALLOWED                       1.500    
     MAX. TIME INCREMENT INCREASE FACTOR ALLOWED (DYNAMICS)            1.250    
     MAX. TIME INCREMENT INCREASE FACTOR ALLOWED (DIFFUSION)           2.000    
     MINIMUM TIME INCREMENT RATIO FOR EXTRAPOLATION TO OCCUR          0.1000    
     MAX. RATIO OF TIME INCREMENT TO STABILITY LIMIT                   1.000    
     FRACTION OF STABILITY LIMIT FOR NEW TIME INCREMENT               0.9500    
     TIME INCREMENT INCREASE FACTOR BEFORE A TIME POINT                1.000    

 CONTACT CONTROLS APPLIED TO ALL CONTACT PAIRS:
     GLOBAL STABILIZATION CONTROL IS NOT USED
     RELATIVE PENETRATION TOLERANCE FOR AUGMENTED LAGRANGE CONTACT:
          FINITE-SLIDING SURFACE-TO-SURFACE                            5.000E-02
          OTHERWISE                                                    1.000E-03

          PRINT OF INCREMENT NUMBER, TIME, ETC., EVERY    1  INCREMENTS

     THE MAXIMUM NUMBER OF INCREMENTS IN THIS STEP IS                   10000

          LARGE DISPLACEMENT THEORY WILL BE USED

          UNSYMMETRIC MATRIX STORAGE AND SOLUTION WILL BE USED

     LINEAR EXTRAPOLATION WILL BE USED

     CHARACTERISTIC ELEMENT LENGTH      3.76    

     DETAILS REGARDING ACTUAL SOLUTION WAVEFRONT REQUESTED

     DETAILED OUTPUT OF DIAGNOSTICS TO DATABASE REQUESTED

     PRINT OF INCREMENT NUMBER, TIME, ETC., TO THE MESSAGE FILE EVERY     1  INCREMENTS

     ELEMENT OPERATIONS WILL BE CARRIED OUT IN PARALLEL USING  12 PROCESSORS
          THE INITIAL TIME INCREMENT WAS REDUCED TO   3.000E-05 TO MEET THE NEXT OUTPUT TIME POINT

     PARALLEL CONTACT TRACKING ENABLED


     COLLECTING MODEL CONSTRAINT INFORMATION FOR OVERCONSTRAINT CHECKS

     COLLECTING STEP CONSTRAINT INFORMATION FOR OVERCONSTRAINT CHECKS
  
     ASYNCHRONOUS TRACKING ELEMENT LOOP STARTED
  
  
     ASYNCHRONOUS OUTPUT DATABASE FRAME FLUSH STARTED
  


  INCREMENT     1 STARTS. ATTEMPT NUMBER  1, TIME INCREMENT  3.000E-05
  
     ASYNCHRONOUS TRACKING ELEMENT LOOP STARTED
  
 
     INITIAL ELEMENT LOAD BALANCE
        COMPUTE NODE   1   PROCESS    NUMBER OF ELEMENTS
                              1            187
                              2            187
                              3            187
                              4            187
                              5            187
                              6            187
                              7            187
                              8            187
                              9            187
                             10            187
                             11            187
                             12            198

  NUMBER OF EQUATIONS =    13596     NUMBER OF FLOATING PT. OPERATIONS =  3.08E+07

  USING THE DIRECT SOLVER WITH  12 PROCESSORS

     CHECK POINT   START OF SOLVER    

     CHECK POINT  END OF SOLVER       

       ELAPSED USER TIME (SEC)      =  0.41000    
       ELAPSED SYSTEM TIME (SEC)    =  0.17000    
       ELAPSED TOTAL CPU TIME (SEC) =  0.58000    
       ELAPSED WALLCLOCK TIME (SEC) =          0
  
     ASYNCHRONOUS TRACKING ELEMENT LOOP STARTED
  

                    2 SEVERE DISCONTINUITIES OCCURRED DURING THIS ITERATION.
                    2 POINTS CHANGED FROM CLOSED TO OPEN

               CONVERGENCE CHECKS FOR SEVERE DISCONTINUITY ITERATION     1

   MAX. PENETRATION ERROR -2.49164E-09 AT NODE PISTON-1.408 OF CONTACT PAIR 
   (ASSEMBLY_PISTON-1_PUMP-CONTACT,ASSEMBLY_TUBE-INNER)
   MAX. CONTACT FORCE ERROR -118.541       AT NODE PISTON-1.1 OF CONTACT PAIR 
   (ASSEMBLY_PISTON-1_PUMP-CONTACT,ASSEMBLY_TUBE-INNER)
          THE ESTIMATED CONTACT FORCE ERROR IS OUTSIDE OF CONVERGENCE TOLERANCES.

 AVERAGE FORCE                       3.16       TIME AVG. FORCE        3.16    
 LARGEST RESIDUAL FORCE             -79.1       AT NODE          1   DOF  1
   INSTANCE: PISTON-1                                                                        
 LARGEST INCREMENT OF DISP.         0.601       AT NODE          9   DOF  2
   INSTANCE: PISTON-1                                                                        
 LARGEST CORRECTION TO DISP.        9.331E-04   AT NODE          9   DOF  2
   INSTANCE: PISTON-1                                                                        
          FORCE     EQUILIBRIUM NOT ACHIEVED WITHIN TOLERANCE.

  NUMBER OF EQUATIONS =    13596     NUMBER OF FLOATING PT. OPERATIONS =  3.08E+07

  USING THE DIRECT SOLVER WITH  12 PROCESSORS

     CHECK POINT   START OF SOLVER    

     CHECK POINT  END OF SOLVER       

       ELAPSED USER TIME (SEC)      =  0.44000    
       ELAPSED SYSTEM TIME (SEC)    =  0.11000    
       ELAPSED TOTAL CPU TIME (SEC) =  0.55000    
       ELAPSED WALLCLOCK TIME (SEC) =          0
  
     ASYNCHRONOUS TRACKING ELEMENT LOOP STARTED
  

                    1 SEVERE DISCONTINUITIES OCCURRED DURING THIS ITERATION.
                    1 POINTS CHANGED FROM CLOSED TO OPEN

               CONVERGENCE CHECKS FOR SEVERE DISCONTINUITY ITERATION     2

   MAX. PENETRATION ERROR -729.715E-15   AT NODE PISTON-1.12 OF CONTACT PAIR 
   (ASSEMBLY_PISTON-1_PUMP-CONTACT,ASSEMBLY_TUBE-INNER)
   MAX. CONTACT FORCE ERROR -72.7396      AT NODE PISTON-1.408 OF CONTACT PAIR 
   (ASSEMBLY_PISTON-1_PUMP-CONTACT,ASSEMBLY_TUBE-INNER)
          THE ESTIMATED CONTACT FORCE ERROR IS OUTSIDE OF CONVERGENCE TOLERANCES.

 AVERAGE FORCE                       3.15       TIME AVG. FORCE        3.15    
 LARGEST RESIDUAL FORCE             -48.5       AT NODE        408   DOF  1
   INSTANCE: PISTON-1                                                                        
 LARGEST INCREMENT OF DISP.         0.601       AT NODE          9   DOF  2
   INSTANCE: PISTON-1                                                                        
 LARGEST CORRECTION TO DISP.       -2.108E-05   AT NODE          1   DOF  2
   INSTANCE: PISTON-1                                                                        
          FORCE     EQUILIBRIUM NOT ACHIEVED WITHIN TOLERANCE.

  NUMBER OF EQUATIONS =    13596     NUMBER OF FLOATING PT. OPERATIONS =  3.08E+07

  USING THE DIRECT SOLVER WITH  12 PROCESSORS

     CHECK POINT   START OF SOLVER    

     CHECK POINT  END OF SOLVER       

       ELAPSED USER TIME (SEC)      =  0.36000    
       ELAPSED SYSTEM TIME (SEC)    =  0.19000    
       ELAPSED TOTAL CPU TIME (SEC) =  0.55000    
       ELAPSED WALLCLOCK TIME (SEC) =          0
  
     ASYNCHRONOUS TRACKING ELEMENT LOOP STARTED
  

                    1 SEVERE DISCONTINUITIES OCCURRED DURING THIS ITERATION.
                    1 POINTS CHANGED FROM CLOSED TO OPEN

               CONVERGENCE CHECKS FOR SEVERE DISCONTINUITY ITERATION     3

   MAX. PENETRATION ERROR -653.685E-15   AT NODE PISTON-1.12 OF CONTACT PAIR 
   (ASSEMBLY_PISTON-1_PUMP-CONTACT,ASSEMBLY_TUBE-INNER)
   MAX. CONTACT FORCE ERROR -15.2817      AT NODE PISTON-1.11 OF CONTACT PAIR 
   (ASSEMBLY_PISTON-1_PUMP-CONTACT,ASSEMBLY_TUBE-INNER)
          THE ESTIMATED CONTACT FORCE ERROR IS OUTSIDE OF CONVERGENCE TOLERANCES.

 AVERAGE FORCE                       3.14       TIME AVG. FORCE        3.14    
 LARGEST RESIDUAL FORCE             -10.2       AT NODE         11   DOF  1
   INSTANCE: PISTON-1                                                                        
 LARGEST INCREMENT OF DISP.         0.601       AT NODE          9   DOF  2
   INSTANCE: PISTON-1                                                                        
 LARGEST CORRECTION TO DISP.       -1.475E-05   AT NODE        408   DOF  2
   INSTANCE: PISTON-1                                                                        
          FORCE     EQUILIBRIUM NOT ACHIEVED WITHIN TOLERANCE.

  NUMBER OF EQUATIONS =    13596     NUMBER OF FLOATING PT. OPERATIONS =  3.07E+07

  USING THE DIRECT SOLVER WITH  12 PROCESSORS

     CHECK POINT   START OF SOLVER    

     CHECK POINT  END OF SOLVER       

       ELAPSED USER TIME (SEC)      =  0.41000    
       ELAPSED SYSTEM TIME (SEC)    =  0.15000    
       ELAPSED TOTAL CPU TIME (SEC) =  0.56000    
       ELAPSED WALLCLOCK TIME (SEC) =          0
  
     ASYNCHRONOUS TRACKING ELEMENT LOOP STARTED
  

               CONVERGENCE CHECKS FOR EQUILIBRIUM ITERATION     1

   MAX. PENETRATION ERROR -376.499E-15   AT NODE PISTON-1.546 OF CONTACT PAIR 
   (ASSEMBLY_PISTON-1_PUMP-CONTACT,ASSEMBLY_TUBE-INNER)
   MAX. CONTACT FORCE ERROR -3.33555E-06 AT NODE PISTON-1.546 OF CONTACT PAIR 
   (ASSEMBLY_PISTON-1_PUMP-CONTACT,ASSEMBLY_TUBE-INNER)
          THE CONTACT CONSTRAINTS HAVE CONVERGED.

 AVERAGE FORCE                       3.14       TIME AVG. FORCE        3.14    
 LARGEST RESIDUAL FORCE             1.636E-04   AT NODE          1   DOF  1
   INSTANCE: PISTON-1                                                                        
 LARGEST INCREMENT OF DISP.         0.601       AT NODE          9   DOF  2
   INSTANCE: PISTON-1                                                                        
 LARGEST CORRECTION TO DISP.       -2.500E-06   AT NODE         11   DOF  2
   INSTANCE: PISTON-1                                                                        
          THE FORCE     EQUILIBRIUM EQUATIONS HAVE CONVERGED
          TIME INCREMENT MAY NOW INCREASE TO    3.000E-03
          TIME INCREMENT REDUCED TO   3.000E-05 TO MEET NEXT OUTPUT TIME POINT

 ITERATION SUMMARY FOR THE INCREMENT:   4 TOTAL ITERATIONS, OF WHICH
   3 ARE SEVERE DISCONTINUITY ITERATIONS AND  1 ARE EQUILIBRIUM ITERATIONS.

 TIME INCREMENT COMPLETED  3.000E-05,  FRACTION OF STEP COMPLETED  1.000E-02
 STEP TIME COMPLETED       3.000E-05,  TOTAL TIME COMPLETED        3.000E-05
  
     ASYNCHRONOUS OUTPUT DATABASE FRAME FLUSH STARTED
  


  INCREMENT     2 STARTS. ATTEMPT NUMBER  1, TIME INCREMENT  3.000E-05
  
     ASYNCHRONOUS TRACKING ELEMENT LOOP STARTED
  

  NUMBER OF EQUATIONS =    13596     NUMBER OF FLOATING PT. OPERATIONS =  3.39E+07

  USING THE DIRECT SOLVER WITH  12 PROCESSORS

     CHECK POINT   START OF SOLVER    

     CHECK POINT  END OF SOLVER       

       ELAPSED USER TIME (SEC)      =  0.39000    
       ELAPSED SYSTEM TIME (SEC)    =  0.16000    
       ELAPSED TOTAL CPU TIME (SEC) =  0.55000    
       ELAPSED WALLCLOCK TIME (SEC) =          0
  
     ASYNCHRONOUS TRACKING ELEMENT LOOP STARTED
  

                    2 SEVERE DISCONTINUITIES OCCURRED DURING THIS ITERATION.
                    1 POINTS CHANGED FROM OPEN TO CLOSED
                    1 POINTS CHANGED FROM STICKING TO SLIPPING

               CONVERGENCE CHECKS FOR SEVERE DISCONTINUITY ITERATION     1

   MAX. PENETRATION ERROR 2.78535E-06 AT NODE PISTON-1.11 OF CONTACT PAIR 
   (ASSEMBLY_PISTON-1_PUMP-CONTACT,ASSEMBLY_TUBE-INNER)
   MAX. CONTACT FORCE ERROR 24.6764      AT NODE PISTON-1.11 OF CONTACT PAIR 
   (ASSEMBLY_PISTON-1_PUMP-CONTACT,ASSEMBLY_TUBE-INNER)
          THE ESTIMATED CONTACT FORCE ERROR IS OUTSIDE OF CONVERGENCE TOLERANCES.

 AVERAGE FORCE                       7.63       TIME AVG. FORCE        5.39    
 LARGEST RESIDUAL FORCE            -0.137       AT NODE          1   DOF  1
   INSTANCE: PISTON-1                                                                        
 LARGEST INCREMENT OF DISP.         0.602       AT NODE        368   DOF  2
   INSTANCE: PISTON-1                                                                        
 LARGEST CORRECTION TO DISP.        1.529E-03   AT NODE         55   DOF  2
   INSTANCE: PISTON-1                                                                        
          FORCE     EQUILIBRIUM NOT ACHIEVED WITHIN TOLERANCE.

  NUMBER OF EQUATIONS =    13596     NUMBER OF FLOATING PT. OPERATIONS =  3.46E+07

  USING THE DIRECT SOLVER WITH  12 PROCESSORS

     CHECK POINT   START OF SOLVER    

     CHECK POINT  END OF SOLVER       

       ELAPSED USER TIME (SEC)      =  0.40000    
       ELAPSED SYSTEM TIME (SEC)    =  0.13000    
       ELAPSED TOTAL CPU TIME (SEC) =  0.53000    
       ELAPSED WALLCLOCK TIME (SEC) =          0
  
     ASYNCHRONOUS TRACKING ELEMENT LOOP STARTED
  

               CONVERGENCE CHECKS FOR EQUILIBRIUM ITERATION     1

   MAX. PENETRATION ERROR -603.091E-15   AT NODE PISTON-1.546 OF CONTACT PAIR 
   (ASSEMBLY_PISTON-1_PUMP-CONTACT,ASSEMBLY_TUBE-INNER)
   MAX. CONTACT FORCE ERROR -5.34300E-06 AT NODE PISTON-1.546 OF CONTACT PAIR 
   (ASSEMBLY_PISTON-1_PUMP-CONTACT,ASSEMBLY_TUBE-INNER)
          THE CONTACT CONSTRAINTS HAVE CONVERGED.

 AVERAGE FORCE                       7.63       TIME AVG. FORCE        5.39    
 LARGEST RESIDUAL FORCE            -7.084E-04   AT NODE         11   DOF  1
   INSTANCE: PISTON-1                                                                        
 LARGEST INCREMENT OF DISP.         0.602       AT NODE        368   DOF  2
   INSTANCE: PISTON-1                                                                        
 LARGEST CORRECTION TO DISP.       -3.034E-06   AT NODE         11   DOF  2
   INSTANCE: PISTON-1                                                                        
          THE FORCE     EQUILIBRIUM EQUATIONS HAVE CONVERGED
          TIME INCREMENT MAY NOW INCREASE TO    3.000E-03
          TIME INCREMENT REDUCED TO   3.000E-05 TO MEET NEXT OUTPUT TIME POINT

 ITERATION SUMMARY FOR THE INCREMENT:   2 TOTAL ITERATIONS, OF WHICH
   1 ARE SEVERE DISCONTINUITY ITERATIONS AND  1 ARE EQUILIBRIUM ITERATIONS.

 TIME INCREMENT COMPLETED  3.000E-05,  FRACTION OF STEP COMPLETED  2.000E-02
 STEP TIME COMPLETED       6.000E-05,  TOTAL TIME COMPLETED        6.000E-05
  
     ASYNCHRONOUS OUTPUT DATABASE FRAME FLUSH STARTED
  


  INCREMENT     3 STARTS. ATTEMPT NUMBER  1, TIME INCREMENT  3.000E-05
  
     ASYNCHRONOUS TRACKING ELEMENT LOOP STARTED
  

  NUMBER OF EQUATIONS =    13596     NUMBER OF FLOATING PT. OPERATIONS =  3.22E+07

  USING THE DIRECT SOLVER WITH  12 PROCESSORS

     CHECK POINT   START OF SOLVER    

     CHECK POINT  END OF SOLVER       

       ELAPSED USER TIME (SEC)      =  0.40000    
       ELAPSED SYSTEM TIME (SEC)    =  0.15000    
       ELAPSED TOTAL CPU TIME (SEC) =  0.55000    
       ELAPSED WALLCLOCK TIME (SEC) =          0
  
     ASYNCHRONOUS TRACKING ELEMENT LOOP STARTED
  

                    2 SEVERE DISCONTINUITIES OCCURRED DURING THIS ITERATION.
                    1 POINTS CHANGED FROM OPEN TO CLOSED
                    1 POINTS CHANGED FROM STICKING TO SLIPPING

               CONVERGENCE CHECKS FOR SEVERE DISCONTINUITY ITERATION     1

   MAX. PENETRATION ERROR 3.77171E-03 AT NODE CAP-1.519 OF CONTACT PAIR 
   (ASSEMBLY_CAP-1_TRANSITION-AND-PUMP-CONTACT,ASSEMBLY_TRANSITION-PIECE-1_END-C
   ONTACT)
   MAX. CONTACT FORCE ERROR 1.14040E+03 AT NODE CAP-1.519 OF CONTACT PAIR 
   (ASSEMBLY_CAP-1_TRANSITION-AND-PUMP-CONTACT,ASSEMBLY_TRANSITION-PIECE-1_END-C
   ONTACT)
          PENETRATION ERROR TOO LARGE COMPARED TO DISPLACEMENT INCREMENT.

 AVERAGE FORCE                       7.99       TIME AVG. FORCE        6.25    
 LARGEST RESIDUAL FORCE             0.256       AT NODE          6   DOF  1
   INSTANCE: PUMP-TUBE-1                                                                     
 LARGEST INCREMENT OF DISP.         0.604       AT NODE        403   DOF  2
   INSTANCE: CAP-1                                                                           
 LARGEST CORRECTION TO DISP.        2.564E-03   AT NODE        149   DOF  2
   INSTANCE: CAP-1                                                                           
          FORCE     EQUILIBRIUM NOT ACHIEVED WITHIN TOLERANCE.

  NUMBER OF EQUATIONS =    13596     NUMBER OF FLOATING PT. OPERATIONS =  3.48E+07

  USING THE DIRECT SOLVER WITH  12 PROCESSORS

     CHECK POINT   START OF SOLVER    

     CHECK POINT  END OF SOLVER       

       ELAPSED USER TIME (SEC)      =  0.41000    
       ELAPSED SYSTEM TIME (SEC)    =  0.14000    
       ELAPSED TOTAL CPU TIME (SEC) =  0.55000    
       ELAPSED WALLCLOCK TIME (SEC) =          0
  
     ASYNCHRONOUS TRACKING ELEMENT LOOP STARTED
  

                    1 SEVERE DISCONTINUITIES OCCURRED DURING THIS ITERATION.
                    1 POINTS CHANGED FROM CLOSED TO OPEN

               CONVERGENCE CHECKS FOR SEVERE DISCONTINUITY ITERATION     2

   MAX. PENETRATION ERROR 1.42376E-06 AT NODE CAP-1.519 OF CONTACT PAIR 
   (ASSEMBLY_CAP-1_TRANSITION-AND-PUMP-CONTACT,ASSEMBLY_TRANSITION-PIECE-1_END-C
   ONTACT)
   MAX. CONTACT FORCE ERROR -108.793       AT NODE CAP-1.149 OF CONTACT PAIR 
   (ASSEMBLY_CAP-1_TRANSITION-AND-PUMP-CONTACT,ASSEMBLY_PUMP-TUBE-1_PISTON-CONTA
   CT)
          THE ESTIMATED CONTACT FORCE ERROR IS OUTSIDE OF CONVERGENCE TOLERANCES.

 AVERAGE FORCE                       9.25       TIME AVG. FORCE        6.67    
 LARGEST RESIDUAL FORCE             -72.5       AT NODE        149   DOF  1
   INSTANCE: CAP-1                                                                           
 LARGEST INCREMENT OF DISP.         0.604       AT NODE          7   DOF  2
   INSTANCE: CAP-1                                                                           
 LARGEST CORRECTION TO DISP.       -3.813E-03   AT NODE        519   DOF  2
   INSTANCE: CAP-1                                                                           
          FORCE     EQUILIBRIUM NOT ACHIEVED WITHIN TOLERANCE.

  NUMBER OF EQUATIONS =    13596     NUMBER OF FLOATING PT. OPERATIONS =  3.48E+07

  USING THE DIRECT SOLVER WITH  12 PROCESSORS

     CHECK POINT   START OF SOLVER    

     CHECK POINT  END OF SOLVER       

       ELAPSED USER TIME (SEC)      =  0.34000    
       ELAPSED SYSTEM TIME (SEC)    =  0.20000    
       ELAPSED TOTAL CPU TIME (SEC) =  0.54000    
       ELAPSED WALLCLOCK TIME (SEC) =          0
  
     ASYNCHRONOUS TRACKING ELEMENT LOOP STARTED
  

                    1 SEVERE DISCONTINUITIES OCCURRED DURING THIS ITERATION.
                    1 POINTS CHANGED FROM CLOSED TO OPEN

               CONVERGENCE CHECKS FOR SEVERE DISCONTINUITY ITERATION     3

   MAX. PENETRATION ERROR 711.657E-12   AT NODE CAP-1.153 OF CONTACT PAIR 
   (ASSEMBLY_CAP-1_TRANSITION-AND-PUMP-CONTACT,ASSEMBLY_PUMP-TUBE-1_PISTON-CONTA
   CT)
   MAX. CONTACT FORCE ERROR -38.1410      AT NODE CAP-1.32 OF CONTACT PAIR 
   (ASSEMBLY_CAP-1_TRANSITION-AND-PUMP-CONTACT,ASSEMBLY_PUMP-TUBE-1_PISTON-CONTA
   CT)
          THE ESTIMATED CONTACT FORCE ERROR IS OUTSIDE OF CONVERGENCE TOLERANCES.

 AVERAGE FORCE                       9.22       TIME AVG. FORCE        6.67    
 LARGEST RESIDUAL FORCE             -25.5       AT NODE         32   DOF  1
   INSTANCE: CAP-1                                                                           
 LARGEST INCREMENT OF DISP.         0.604       AT NODE          7   DOF  2
   INSTANCE: CAP-1                                                                           
 LARGEST CORRECTION TO DISP.       -6.459E-04   AT NODE        149   DOF  1
   INSTANCE: CAP-1                                                                           
          FORCE     EQUILIBRIUM NOT ACHIEVED WITHIN TOLERANCE.

  NUMBER OF EQUATIONS =    13596     NUMBER OF FLOATING PT. OPERATIONS =  3.48E+07

  USING THE DIRECT SOLVER WITH  12 PROCESSORS

     CHECK POINT   START OF SOLVER    

     CHECK POINT  END OF SOLVER       

       ELAPSED USER TIME (SEC)      =  0.40000    
       ELAPSED SYSTEM TIME (SEC)    =  0.14000    
       ELAPSED TOTAL CPU TIME (SEC) =  0.54000    
       ELAPSED WALLCLOCK TIME (SEC) =          0
  
     ASYNCHRONOUS TRACKING ELEMENT LOOP STARTED
  

               CONVERGENCE CHECKS FOR EQUILIBRIUM ITERATION     1

   MAX. PENETRATION ERROR 1.36198E-09 AT NODE CAP-1.153 OF CONTACT PAIR 
   (ASSEMBLY_CAP-1_TRANSITION-AND-PUMP-CONTACT,ASSEMBLY_PUMP-TUBE-1_PISTON-CONTA
   CT)
   MAX. CONTACT FORCE ERROR 1.09290E-03 AT NODE CAP-1.153 OF CONTACT PAIR 
   (ASSEMBLY_CAP-1_TRANSITION-AND-PUMP-CONTACT,ASSEMBLY_PUMP-TUBE-1_PISTON-CONTA
   CT)
          THE CONTACT CONSTRAINTS HAVE CONVERGED.

 AVERAGE FORCE                       9.23       TIME AVG. FORCE        6.67    
 LARGEST RESIDUAL FORCE             5.821E-03   AT NODE        151   DOF  1
   INSTANCE: CAP-1                                                                           
 LARGEST INCREMENT OF DISP.         0.604       AT NODE          7   DOF  2
   INSTANCE: CAP-1                                                                           
 LARGEST CORRECTION TO DISP.       -2.326E-04   AT NODE         32   DOF  1
   INSTANCE: CAP-1                                                                           
          THE FORCE     EQUILIBRIUM EQUATIONS HAVE CONVERGED
          TIME INCREMENT MAY NOW INCREASE TO    3.000E-03
          TIME INCREMENT REDUCED TO   3.000E-05 TO MEET NEXT OUTPUT TIME POINT

 ITERATION SUMMARY FOR THE INCREMENT:   4 TOTAL ITERATIONS, OF WHICH
   3 ARE SEVERE DISCONTINUITY ITERATIONS AND  1 ARE EQUILIBRIUM ITERATIONS.

 TIME INCREMENT COMPLETED  3.000E-05,  FRACTION OF STEP COMPLETED  3.000E-02
 STEP TIME COMPLETED       9.000E-05,  TOTAL TIME COMPLETED        9.000E-05
  
     ASYNCHRONOUS OUTPUT DATABASE FRAME FLUSH STARTED
  


  INCREMENT     4 STARTS. ATTEMPT NUMBER  1, TIME INCREMENT  3.000E-05
  
     ASYNCHRONOUS TRACKING ELEMENT LOOP STARTED
  

  NUMBER OF EQUATIONS =    13596     NUMBER OF FLOATING PT. OPERATIONS =  3.26E+07

  USING THE DIRECT SOLVER WITH  12 PROCESSORS

     CHECK POINT   START OF SOLVER    

     CHECK POINT  END OF SOLVER       

       ELAPSED USER TIME (SEC)      =  0.42000    
       ELAPSED SYSTEM TIME (SEC)    =  0.12000    
       ELAPSED TOTAL CPU TIME (SEC) =  0.54000    
       ELAPSED WALLCLOCK TIME (SEC) =          0
  
     ASYNCHRONOUS TRACKING ELEMENT LOOP STARTED
  

                    5 SEVERE DISCONTINUITIES OCCURRED DURING THIS ITERATION.
                    2 POINTS CHANGED FROM OPEN TO CLOSED
                    1 POINTS CHANGED FROM CLOSED TO OPEN
                    2 POINTS CHANGED FROM STICKING TO SLIPPING

               CONVERGENCE CHECKS FOR SEVERE DISCONTINUITY ITERATION     1

   MAX. PENETRATION ERROR 3.40825E-03 AT NODE CAP-1.519 OF CONTACT PAIR 
   (ASSEMBLY_CAP-1_TRANSITION-AND-PUMP-CONTACT,ASSEMBLY_TRANSITION-PIECE-1_END-C
   ONTACT)
   MAX. CONTACT FORCE ERROR -1.18968E+03 AT NODE CAP-1.153 OF CONTACT PAIR 
   (ASSEMBLY_CAP-1_TRANSITION-AND-PUMP-CONTACT,ASSEMBLY_PUMP-TUBE-1_PISTON-CONTA
   CT)
          PENETRATION ERROR TOO LARGE COMPARED TO DISPLACEMENT INCREMENT.

 AVERAGE FORCE                       85.5       TIME AVG. FORCE        26.4    
 LARGEST RESIDUAL FORCE            -2.977E+03   AT NODE          1   DOF  2
   INSTANCE: CAP-1                                                                           
 LARGEST INCREMENT OF DISP.         0.620       AT NODE          7   DOF  2
   INSTANCE: CAP-1                                                                           
 LARGEST CORRECTION TO DISP.       -0.173       AT NODE        519   DOF  2
   INSTANCE: CAP-1                                                                           
          FORCE     EQUILIBRIUM NOT ACHIEVED WITHIN TOLERANCE.

  NUMBER OF EQUATIONS =    13596     NUMBER OF FLOATING PT. OPERATIONS =  3.33E+07

  USING THE DIRECT SOLVER WITH  12 PROCESSORS

     CHECK POINT   START OF SOLVER    

     CHECK POINT  END OF SOLVER       

       ELAPSED USER TIME (SEC)      =  0.37000    
       ELAPSED SYSTEM TIME (SEC)    =  0.20000    
       ELAPSED TOTAL CPU TIME (SEC) =  0.57000    
       ELAPSED WALLCLOCK TIME (SEC) =          1
  
     ASYNCHRONOUS TRACKING ELEMENT LOOP STARTED
  

                    2 SEVERE DISCONTINUITIES OCCURRED DURING THIS ITERATION.
                    1 POINTS CHANGED FROM OPEN TO CLOSED
                    1 POINTS CHANGED FROM STICKING TO SLIPPING

               CONVERGENCE CHECKS FOR SEVERE DISCONTINUITY ITERATION     2

   MAX. PENETRATION ERROR 2.70432E-03 AT NODE CAP-1.1 OF CONTACT PAIR 
   (ASSEMBLY_CAP-1_TRANSITION-AND-PUMP-CONTACT,ASSEMBLY_TRANSITION-PIECE-1_END-C
   ONTACT)
   MAX. CONTACT FORCE ERROR 895.062       AT NODE CAP-1.1 OF CONTACT PAIR 
   (ASSEMBLY_CAP-1_TRANSITION-AND-PUMP-CONTACT,ASSEMBLY_TRANSITION-PIECE-1_END-C
   ONTACT)
          THE ESTIMATED CONTACT FORCE ERROR IS OUTSIDE OF CONVERGENCE TOLERANCES.

 AVERAGE FORCE                       53.8       TIME AVG. FORCE        18.4    
 LARGEST RESIDUAL FORCE            -1.317E+03   AT NODE        145   DOF  2
   INSTANCE: CAP-1                                                                           
 LARGEST INCREMENT OF DISP.         0.613       AT NODE          7   DOF  2
   INSTANCE: CAP-1                                                                           
 LARGEST CORRECTION TO DISP.        5.365E-02   AT NODE        216   DOF  2
   INSTANCE: CAP-1                                                                           
          FORCE     EQUILIBRIUM NOT ACHIEVED WITHIN TOLERANCE.

  NUMBER OF EQUATIONS =    13596     NUMBER OF FLOATING PT. OPERATIONS =  3.33E+07

  USING THE DIRECT SOLVER WITH  12 PROCESSORS

     CHECK POINT   START OF SOLVER    

     CHECK POINT  END OF SOLVER       

       ELAPSED USER TIME (SEC)      =  0.40000    
       ELAPSED SYSTEM TIME (SEC)    =  0.15000    
       ELAPSED TOTAL CPU TIME (SEC) =  0.55000    
       ELAPSED WALLCLOCK TIME (SEC) =          0
  
     ASYNCHRONOUS TRACKING ELEMENT LOOP STARTED
  

               CONVERGENCE CHECKS FOR EQUILIBRIUM ITERATION     1

   MAX. PENETRATION ERROR -9.34854E-06 AT NODE CAP-1.519 OF CONTACT PAIR 
   (ASSEMBLY_CAP-1_TRANSITION-AND-PUMP-CONTACT,ASSEMBLY_TRANSITION-PIECE-1_END-C
   ONTACT)
   MAX. CONTACT FORCE ERROR -3.01367     AT NODE CAP-1.519 OF CONTACT PAIR 
   (ASSEMBLY_CAP-1_TRANSITION-AND-PUMP-CONTACT,ASSEMBLY_TRANSITION-PIECE-1_END-C
   ONTACT)
          THE CONTACT CONSTRAINTS HAVE CONVERGED.

 AVERAGE FORCE                       51.1       TIME AVG. FORCE        17.8    
 LARGEST RESIDUAL FORCE             -25.6       AT NODE        145   DOF  2
   INSTANCE: CAP-1                                                                           
 LARGEST INCREMENT OF DISP.         0.614       AT NODE          7   DOF  2
   INSTANCE: CAP-1                                                                           
 LARGEST CORRECTION TO DISP.        1.880E-02   AT NODE         69   DOF  2
   INSTANCE: CAP-1                                                                           
          FORCE     EQUILIBRIUM NOT ACHIEVED WITHIN TOLERANCE.

  NUMBER OF EQUATIONS =    13596     NUMBER OF FLOATING PT. OPERATIONS =  3.33E+07

  USING THE DIRECT SOLVER WITH  12 PROCESSORS

     CHECK POINT   START OF SOLVER    

     CHECK POINT  END OF SOLVER       

       ELAPSED USER TIME (SEC)      =  0.40000    
       ELAPSED SYSTEM TIME (SEC)    =  0.16000    
       ELAPSED TOTAL CPU TIME (SEC) =  0.56000    
       ELAPSED WALLCLOCK TIME (SEC) =          0
  
     ASYNCHRONOUS TRACKING ELEMENT LOOP STARTED
  

               CONVERGENCE CHECKS FOR EQUILIBRIUM ITERATION     2

   MAX. PENETRATION ERROR -172.593E-09   AT NODE CAP-1.1 OF CONTACT PAIR 
   (ASSEMBLY_CAP-1_TRANSITION-AND-PUMP-CONTACT,ASSEMBLY_TRANSITION-PIECE-1_END-C
   ONTACT)
   MAX. CONTACT FORCE ERROR -57.4108E-03  AT NODE CAP-1.1 OF CONTACT PAIR 
   (ASSEMBLY_CAP-1_TRANSITION-AND-PUMP-CONTACT,ASSEMBLY_TRANSITION-PIECE-1_END-C
   ONTACT)
          THE CONTACT CONSTRAINTS HAVE CONVERGED.

 AVERAGE FORCE                       51.1       TIME AVG. FORCE        17.8    
 LARGEST RESIDUAL FORCE             0.335       AT NODE        520   DOF  1
   INSTANCE: CAP-1                                                                           
 LARGEST INCREMENT OF DISP.         0.614       AT NODE          7   DOF  2
   INSTANCE: CAP-1                                                                           
 LARGEST CORRECTION TO DISP.       -2.960E-04   AT NODE          1   DOF  2
   INSTANCE: CAP-1                                                                           
          FORCE     EQUILIBRIUM NOT ACHIEVED WITHIN TOLERANCE.

  NUMBER OF EQUATIONS =    13596     NUMBER OF FLOATING PT. OPERATIONS =  3.33E+07

  USING THE DIRECT SOLVER WITH  12 PROCESSORS

     CHECK POINT   START OF SOLVER    

     CHECK POINT  END OF SOLVER       

       ELAPSED USER TIME (SEC)      =  0.39000    
       ELAPSED SYSTEM TIME (SEC)    =  0.14000    
       ELAPSED TOTAL CPU TIME (SEC) =  0.53000    
       ELAPSED WALLCLOCK TIME (SEC) =          0
  
     ASYNCHRONOUS TRACKING ELEMENT LOOP STARTED
  

               CONVERGENCE CHECKS FOR EQUILIBRIUM ITERATION     3

   MAX. PENETRATION ERROR 5.86138E-09 AT NODE CAP-1.1 OF CONTACT PAIR 
   (ASSEMBLY_CAP-1_TRANSITION-AND-PUMP-CONTACT,ASSEMBLY_TRANSITION-PIECE-1_END-C
   ONTACT)
   MAX. CONTACT FORCE ERROR 1.94971E-03 AT NODE CAP-1.1 OF CONTACT PAIR 
   (ASSEMBLY_CAP-1_TRANSITION-AND-PUMP-CONTACT,ASSEMBLY_TRANSITION-PIECE-1_END-C
   ONTACT)
          THE CONTACT CONSTRAINTS HAVE CONVERGED.

 AVERAGE FORCE                       51.1       TIME AVG. FORCE        17.8    
 LARGEST RESIDUAL FORCE             6.484E-03   AT NODE          1   DOF  1
   INSTANCE: CAP-1                                                                           
 LARGEST INCREMENT OF DISP.         0.614       AT NODE          7   DOF  2
   INSTANCE: CAP-1                                                                           
 LARGEST CORRECTION TO DISP.        9.174E-06   AT NODE          1   DOF  2
   INSTANCE: CAP-1                                                                           
          THE FORCE     EQUILIBRIUM EQUATIONS HAVE CONVERGED
          TIME INCREMENT MAY NOW INCREASE TO    3.000E-03
          TIME INCREMENT REDUCED TO   3.000E-05 TO MEET NEXT OUTPUT TIME POINT

 ITERATION SUMMARY FOR THE INCREMENT:   5 TOTAL ITERATIONS, OF WHICH
   2 ARE SEVERE DISCONTINUITY ITERATIONS AND  3 ARE EQUILIBRIUM ITERATIONS.

 TIME INCREMENT COMPLETED  3.000E-05,  FRACTION OF STEP COMPLETED  4.000E-02
 STEP TIME COMPLETED       1.200E-04,  TOTAL TIME COMPLETED        1.200E-04
  
     ASYNCHRONOUS OUTPUT DATABASE FRAME FLUSH STARTED
  


  INCREMENT     5 STARTS. ATTEMPT NUMBER  1, TIME INCREMENT  3.000E-05
  
     ASYNCHRONOUS TRACKING ELEMENT LOOP STARTED
  

  NUMBER OF EQUATIONS =    13596     NUMBER OF FLOATING PT. OPERATIONS =  3.36E+07

  USING THE DIRECT SOLVER WITH  12 PROCESSORS

     CHECK POINT   START OF SOLVER    

     CHECK POINT  END OF SOLVER       

       ELAPSED USER TIME (SEC)      =  0.38000    
       ELAPSED SYSTEM TIME (SEC)    =  0.15000    
       ELAPSED TOTAL CPU TIME (SEC) =  0.53000    
       ELAPSED WALLCLOCK TIME (SEC) =          0
  
     ASYNCHRONOUS TRACKING ELEMENT LOOP STARTED
  

               CONVERGENCE CHECKS FOR EQUILIBRIUM ITERATION     1

   MAX. PENETRATION ERROR 747.836E-06   AT NODE CAP-1.1 OF CONTACT PAIR 
   (ASSEMBLY_CAP-1_TRANSITION-AND-PUMP-CONTACT,ASSEMBLY_TRANSITION-PIECE-1_END-C
   ONTACT)
   MAX. CONTACT FORCE ERROR 339.167       AT NODE CAP-1.1 OF CONTACT PAIR 
   (ASSEMBLY_CAP-1_TRANSITION-AND-PUMP-CONTACT,ASSEMBLY_TRANSITION-PIECE-1_END-C
   ONTACT)
          THE ESTIMATED CONTACT FORCE ERROR IS OUTSIDE OF CONVERGENCE TOLERANCES.

 AVERAGE FORCE                       142.       TIME AVG. FORCE        42.7    
 LARGEST RESIDUAL FORCE            -1.015E+03   AT NODE        145   DOF  2
   INSTANCE: CAP-1                                                                           
 LARGEST INCREMENT OF DISP.         0.597       AT NODE          6   DOF  2
   INSTANCE: CAP-1                                                                           
 LARGEST CORRECTION TO DISP.       -8.420E-02   AT NODE          1   DOF  1
   INSTANCE: CAP-1                                                                           
          FORCE     EQUILIBRIUM NOT ACHIEVED WITHIN TOLERANCE.

  NUMBER OF EQUATIONS =    13596     NUMBER OF FLOATING PT. OPERATIONS =  3.60E+07

  USING THE DIRECT SOLVER WITH  12 PROCESSORS

     CHECK POINT   START OF SOLVER    

     CHECK POINT  END OF SOLVER       

       ELAPSED USER TIME (SEC)      =  0.39000    
       ELAPSED SYSTEM TIME (SEC)    =  0.15000    
       ELAPSED TOTAL CPU TIME (SEC) =  0.54000    
       ELAPSED WALLCLOCK TIME (SEC) =          0
  
     ASYNCHRONOUS TRACKING ELEMENT LOOP STARTED
  

               CONVERGENCE CHECKS FOR EQUILIBRIUM ITERATION     2

   MAX. PENETRATION ERROR 11.5087E-06  AT NODE CAP-1.1 OF CONTACT PAIR 
   (ASSEMBLY_CAP-1_TRANSITION-AND-PUMP-CONTACT,ASSEMBLY_TRANSITION-PIECE-1_END-C
   ONTACT)
   MAX. CONTACT FORCE ERROR 5.18200     AT NODE CAP-1.1 OF CONTACT PAIR 
   (ASSEMBLY_CAP-1_TRANSITION-AND-PUMP-CONTACT,ASSEMBLY_TRANSITION-PIECE-1_END-C
   ONTACT)
          THE CONTACT CONSTRAINTS HAVE CONVERGED.

 AVERAGE FORCE                       142.       TIME AVG. FORCE        42.7    
 LARGEST RESIDUAL FORCE             -49.5       AT NODE        520   DOF  1
   INSTANCE: CAP-1                                                                           
 LARGEST INCREMENT OF DISP.         0.594       AT NODE          6   DOF  2
   INSTANCE: CAP-1                                                                           
 LARGEST CORRECTION TO DISP.       -2.102E-02   AT NODE        519   DOF  2
   INSTANCE: CAP-1                                                                           
          FORCE     EQUILIBRIUM NOT ACHIEVED WITHIN TOLERANCE.

  NUMBER OF EQUATIONS =    13596     NUMBER OF FLOATING PT. OPERATIONS =  3.60E+07

  USING THE DIRECT SOLVER WITH  12 PROCESSORS

     CHECK POINT   START OF SOLVER    

     CHECK POINT  END OF SOLVER       

       ELAPSED USER TIME (SEC)      =  0.40000    
       ELAPSED SYSTEM TIME (SEC)    =  0.17000    
       ELAPSED TOTAL CPU TIME (SEC) =  0.57000    
       ELAPSED WALLCLOCK TIME (SEC) =          1
  
     ASYNCHRONOUS TRACKING ELEMENT LOOP STARTED
  

               CONVERGENCE CHECKS FOR EQUILIBRIUM ITERATION     3

   MAX. PENETRATION ERROR -975.748E-09   AT NODE CAP-1.1 OF CONTACT PAIR 
   (ASSEMBLY_CAP-1_TRANSITION-AND-PUMP-CONTACT,ASSEMBLY_TRANSITION-PIECE-1_END-C
   ONTACT)
   MAX. CONTACT FORCE ERROR -439.940E-03   AT NODE CAP-1.1 OF CONTACT PAIR 
   (ASSEMBLY_CAP-1_TRANSITION-AND-PUMP-CONTACT,ASSEMBLY_TRANSITION-PIECE-1_END-C
   ONTACT)
          THE CONTACT CONSTRAINTS HAVE CONVERGED.

 AVERAGE FORCE                       142.       TIME AVG. FORCE        42.6    
 LARGEST RESIDUAL FORCE             -2.64       AT NODE        519   DOF  2
   INSTANCE: CAP-1                                                                           
 LARGEST INCREMENT OF DISP.         0.594       AT NODE          6   DOF  2
   INSTANCE: CAP-1                                                                           
 LARGEST CORRECTION TO DISP.        3.709E-03   AT NODE        519   DOF  2
   INSTANCE: CAP-1                                                                           
          FORCE     EQUILIBRIUM NOT ACHIEVED WITHIN TOLERANCE.

  NUMBER OF EQUATIONS =    13596     NUMBER OF FLOATING PT. OPERATIONS =  3.60E+07

  USING THE DIRECT SOLVER WITH  12 PROCESSORS

     CHECK POINT   START OF SOLVER    

     CHECK POINT  END OF SOLVER       

       ELAPSED USER TIME (SEC)      =  0.42000    
       ELAPSED SYSTEM TIME (SEC)    =  0.13000    
       ELAPSED TOTAL CPU TIME (SEC) =  0.55000    
       ELAPSED WALLCLOCK TIME (SEC) =          0
  
     ASYNCHRONOUS TRACKING ELEMENT LOOP STARTED
  

               CONVERGENCE CHECKS FOR EQUILIBRIUM ITERATION     4

   MAX. PENETRATION ERROR -18.6973E-09  AT NODE CAP-1.1 OF CONTACT PAIR 
   (ASSEMBLY_CAP-1_TRANSITION-AND-PUMP-CONTACT,ASSEMBLY_TRANSITION-PIECE-1_END-C
   ONTACT)
   MAX. CONTACT FORCE ERROR -8.42968E-03 AT NODE CAP-1.1 OF CONTACT PAIR 
   (ASSEMBLY_CAP-1_TRANSITION-AND-PUMP-CONTACT,ASSEMBLY_TRANSITION-PIECE-1_END-C
   ONTACT)
          THE CONTACT CONSTRAINTS HAVE CONVERGED.

 AVERAGE FORCE                       142.       TIME AVG. FORCE        42.6    
 LARGEST RESIDUAL FORCE             5.184E-02   AT NODE        519   DOF  2
   INSTANCE: CAP-1                                                                           
 LARGEST INCREMENT OF DISP.         0.594       AT NODE          6   DOF  2
   INSTANCE: CAP-1                                                                           
 LARGEST CORRECTION TO DISP.       -1.149E-04   AT NODE        519   DOF  2
   INSTANCE: CAP-1                                                                           
          THE FORCE     EQUILIBRIUM EQUATIONS HAVE CONVERGED
          TIME INCREMENT MAY NOW INCREASE TO    3.000E-03
          TIME INCREMENT REDUCED TO   3.000E-05 TO MEET NEXT OUTPUT TIME POINT

 ITERATION SUMMARY FOR THE INCREMENT:   4 TOTAL ITERATIONS, OF WHICH
   0 ARE SEVERE DISCONTINUITY ITERATIONS AND  4 ARE EQUILIBRIUM ITERATIONS.

 TIME INCREMENT COMPLETED  3.000E-05,  FRACTION OF STEP COMPLETED  5.000E-02
 STEP TIME COMPLETED       1.500E-04,  TOTAL TIME COMPLETED        1.500E-04
  
     ASYNCHRONOUS OUTPUT DATABASE FRAME FLUSH STARTED
  


  INCREMENT     6 STARTS. ATTEMPT NUMBER  1, TIME INCREMENT  3.000E-05
  
     ASYNCHRONOUS TRACKING ELEMENT LOOP STARTED
  

  NUMBER OF EQUATIONS =    13596     NUMBER OF FLOATING PT. OPERATIONS =  3.45E+07

  USING THE DIRECT SOLVER WITH  12 PROCESSORS

     CHECK POINT   START OF SOLVER    

     CHECK POINT  END OF SOLVER       

       ELAPSED USER TIME (SEC)      =  0.40000    
       ELAPSED SYSTEM TIME (SEC)    =  0.13000    
       ELAPSED TOTAL CPU TIME (SEC) =  0.53000    
       ELAPSED WALLCLOCK TIME (SEC) =          0
  
     ASYNCHRONOUS TRACKING ELEMENT LOOP STARTED
  

                    2 SEVERE DISCONTINUITIES OCCURRED DURING THIS ITERATION.
                    1 POINTS CHANGED FROM OPEN TO CLOSED
                    1 POINTS CHANGED FROM STICKING TO SLIPPING

               CONVERGENCE CHECKS FOR SEVERE DISCONTINUITY ITERATION     1

   MAX. PENETRATION ERROR 30.1585E-03  AT NODE CAP-1.69 OF CONTACT PAIR 
   (ASSEMBLY_CAP-1_TRANSITION-AND-PUMP-CONTACT,ASSEMBLY_TRANSITION-PIECE-1_END-C
   ONTACT)
   MAX. CONTACT FORCE ERROR 9.90299E+03 AT NODE CAP-1.69 OF CONTACT PAIR 
   (ASSEMBLY_CAP-1_TRANSITION-AND-PUMP-CONTACT,ASSEMBLY_TRANSITION-PIECE-1_END-C
   ONTACT)
          PENETRATION ERROR TOO LARGE COMPARED TO DISPLACEMENT INCREMENT.

 AVERAGE FORCE                       198.       TIME AVG. FORCE        68.6    
 LARGEST RESIDUAL FORCE             -379.       AT NODE        519   DOF  1
   INSTANCE: CAP-1                                                                           
 LARGEST INCREMENT OF DISP.         0.630       AT NODE          6   DOF  2
   INSTANCE: CAP-1                                                                           
 LARGEST CORRECTION TO DISP.       -6.473E-02   AT NODE          7   DOF  2
   INSTANCE: CAP-1                                                                           
          FORCE     EQUILIBRIUM NOT ACHIEVED WITHIN TOLERANCE.

  NUMBER OF EQUATIONS =    13596     NUMBER OF FLOATING PT. OPERATIONS =  3.45E+07

  USING THE DIRECT SOLVER WITH  12 PROCESSORS

     CHECK POINT   START OF SOLVER    

     CHECK POINT  END OF SOLVER       

       ELAPSED USER TIME (SEC)      =  0.45000    
       ELAPSED SYSTEM TIME (SEC)    =  0.11000    
       ELAPSED TOTAL CPU TIME (SEC) =  0.56000    
       ELAPSED WALLCLOCK TIME (SEC) =          0
  
     ASYNCHRONOUS TRACKING ELEMENT LOOP STARTED
  

                    4 SEVERE DISCONTINUITIES OCCURRED DURING THIS ITERATION.
                    2 POINTS CHANGED FROM OPEN TO CLOSED
                    2 POINTS CHANGED FROM STICKING TO SLIPPING

               CONVERGENCE CHECKS FOR SEVERE DISCONTINUITY ITERATION     2

   MAX. PENETRATION ERROR 1.44454E-03 AT NODE CAP-1.32 OF CONTACT PAIR 
   (ASSEMBLY_CAP-1_TRANSITION-AND-PUMP-CONTACT,ASSEMBLY_PUMP-TUBE-1_PISTON-CONTA
   CT)
   MAX. CONTACT FORCE ERROR 1.42033E+03 AT NODE CAP-1.32 OF CONTACT PAIR 
   (ASSEMBLY_CAP-1_TRANSITION-AND-PUMP-CONTACT,ASSEMBLY_PUMP-TUBE-1_PISTON-CONTA
   CT)
          THE ESTIMATED CONTACT FORCE ERROR IS OUTSIDE OF CONVERGENCE TOLERANCES.

 AVERAGE FORCE                       206.       TIME AVG. FORCE        69.8    
 LARGEST RESIDUAL FORCE             2.547E+03   AT NODE         69   DOF  2
   INSTANCE: CAP-1                                                                           
 LARGEST INCREMENT OF DISP.         0.605       AT NODE        218   DOF  2
   INSTANCE: CAP-1                                                                           
 LARGEST CORRECTION TO DISP.       -0.139       AT NODE         69   DOF  2
   INSTANCE: CAP-1                                                                           
          FORCE     EQUILIBRIUM NOT ACHIEVED WITHIN TOLERANCE.

  NUMBER OF EQUATIONS =    13596     NUMBER OF FLOATING PT. OPERATIONS =  3.17E+07

  USING THE DIRECT SOLVER WITH  12 PROCESSORS

     CHECK POINT   START OF SOLVER    

     CHECK POINT  END OF SOLVER       

       ELAPSED USER TIME (SEC)      =  0.41000    
       ELAPSED SYSTEM TIME (SEC)    =  0.14000    
       ELAPSED TOTAL CPU TIME (SEC) =  0.55000    
       ELAPSED WALLCLOCK TIME (SEC) =          0
  
     ASYNCHRONOUS TRACKING ELEMENT LOOP STARTED
  

               CONVERGENCE CHECKS FOR EQUILIBRIUM ITERATION     1

   MAX. PENETRATION ERROR -5.10672E-06 AT NODE CAP-1.1 OF CONTACT PAIR 
   (ASSEMBLY_CAP-1_TRANSITION-AND-PUMP-CONTACT,ASSEMBLY_TRANSITION-PIECE-1_END-C
   ONTACT)
   MAX. CONTACT FORCE ERROR -2.63078     AT NODE CAP-1.1 OF CONTACT PAIR 
   (ASSEMBLY_CAP-1_TRANSITION-AND-PUMP-CONTACT,ASSEMBLY_TRANSITION-PIECE-1_END-C
   ONTACT)
          THE CONTACT CONSTRAINTS HAVE CONVERGED.

 AVERAGE FORCE                       206.       TIME AVG. FORCE        69.8    
 LARGEST RESIDUAL FORCE              73.9       AT NODE         69   DOF  1
   INSTANCE: CAP-1                                                                           
 LARGEST INCREMENT OF DISP.         0.604       AT NODE        218   DOF  2
   INSTANCE: CAP-1                                                                           
 LARGEST CORRECTION TO DISP.        1.391E-02   AT NODE        519   DOF  2
   INSTANCE: CAP-1                                                                           
          FORCE     EQUILIBRIUM NOT ACHIEVED WITHIN TOLERANCE.

  NUMBER OF EQUATIONS =    13596     NUMBER OF FLOATING PT. OPERATIONS =  3.17E+07

  USING THE DIRECT SOLVER WITH  12 PROCESSORS

     CHECK POINT   START OF SOLVER    

     CHECK POINT  END OF SOLVER       

       ELAPSED USER TIME (SEC)      =  0.42000    
       ELAPSED SYSTEM TIME (SEC)    =  0.13000    
       ELAPSED TOTAL CPU TIME (SEC) =  0.55000    
       ELAPSED WALLCLOCK TIME (SEC) =          0
  
     ASYNCHRONOUS TRACKING ELEMENT LOOP STARTED
  

               CONVERGENCE CHECKS FOR EQUILIBRIUM ITERATION     2

   MAX. PENETRATION ERROR 1.33462E-06 AT NODE CAP-1.1 OF CONTACT PAIR 
   (ASSEMBLY_CAP-1_TRANSITION-AND-PUMP-CONTACT,ASSEMBLY_TRANSITION-PIECE-1_END-C
   ONTACT)
   MAX. CONTACT FORCE ERROR 689.242E-03   AT NODE CAP-1.1 OF CONTACT PAIR 
   (ASSEMBLY_CAP-1_TRANSITION-AND-PUMP-CONTACT,ASSEMBLY_TRANSITION-PIECE-1_END-C
   ONTACT)
          THE CONTACT CONSTRAINTS HAVE CONVERGED.

 AVERAGE FORCE                       206.       TIME AVG. FORCE        69.8    
 LARGEST RESIDUAL FORCE             -13.7       AT NODE        519   DOF  2
   INSTANCE: CAP-1                                                                           
 LARGEST INCREMENT OF DISP.         0.604       AT NODE        218   DOF  2
   INSTANCE: CAP-1                                                                           
 LARGEST CORRECTION TO DISP.        6.000E-03   AT NODE        519   DOF  2
   INSTANCE: CAP-1                                                                           
          FORCE     EQUILIBRIUM NOT ACHIEVED WITHIN TOLERANCE.

  NUMBER OF EQUATIONS =    13596     NUMBER OF FLOATING PT. OPERATIONS =  3.17E+07

  USING THE DIRECT SOLVER WITH  12 PROCESSORS

     CHECK POINT   START OF SOLVER    

     CHECK POINT  END OF SOLVER       

       ELAPSED USER TIME (SEC)      =  0.40000    
       ELAPSED SYSTEM TIME (SEC)    =  0.14000    
       ELAPSED TOTAL CPU TIME (SEC) =  0.54000    
       ELAPSED WALLCLOCK TIME (SEC) =          0
  
     ASYNCHRONOUS TRACKING ELEMENT LOOP STARTED
  

               CONVERGENCE CHECKS FOR EQUILIBRIUM ITERATION     3

   MAX. PENETRATION ERROR 190.423E-09   AT NODE CAP-1.1 OF CONTACT PAIR 
   (ASSEMBLY_CAP-1_TRANSITION-AND-PUMP-CONTACT,ASSEMBLY_TRANSITION-PIECE-1_END-C
   ONTACT)
   MAX. CONTACT FORCE ERROR 98.3330E-03  AT NODE CAP-1.1 OF CONTACT PAIR 
   (ASSEMBLY_CAP-1_TRANSITION-AND-PUMP-CONTACT,ASSEMBLY_TRANSITION-PIECE-1_END-C
   ONTACT)
          THE CONTACT CONSTRAINTS HAVE CONVERGED.

 AVERAGE FORCE                       206.       TIME AVG. FORCE        69.8    
 LARGEST RESIDUAL FORCE            -0.131       AT NODE         69   DOF  1
   INSTANCE: CAP-1                                                                           
 LARGEST INCREMENT OF DISP.         0.604       AT NODE        218   DOF  2
   INSTANCE: CAP-1                                                                           
 LARGEST CORRECTION TO DISP.        2.521E-04   AT NODE          1   DOF  2
   INSTANCE: CAP-1                                                                           
          THE FORCE     EQUILIBRIUM EQUATIONS HAVE CONVERGED
          TIME INCREMENT MAY NOW INCREASE TO    3.000E-03
          TIME INCREMENT REDUCED TO   3.000E-05 TO MEET NEXT OUTPUT TIME POINT

 ITERATION SUMMARY FOR THE INCREMENT:   5 TOTAL ITERATIONS, OF WHICH
   2 ARE SEVERE DISCONTINUITY ITERATIONS AND  3 ARE EQUILIBRIUM ITERATIONS.

 TIME INCREMENT COMPLETED  3.000E-05,  FRACTION OF STEP COMPLETED  6.000E-02
 STEP TIME COMPLETED       1.800E-04,  TOTAL TIME COMPLETED        1.800E-04
  
     ASYNCHRONOUS OUTPUT DATABASE FRAME FLUSH STARTED
  


  INCREMENT     7 STARTS. ATTEMPT NUMBER  1, TIME INCREMENT  3.000E-05
  
     ASYNCHRONOUS TRACKING ELEMENT LOOP STARTED
  

  NUMBER OF EQUATIONS =    13596     NUMBER OF FLOATING PT. OPERATIONS =  3.26E+07

  USING THE DIRECT SOLVER WITH  12 PROCESSORS

     CHECK POINT   START OF SOLVER    

     CHECK POINT  END OF SOLVER       

       ELAPSED USER TIME (SEC)      =  0.36000    
       ELAPSED SYSTEM TIME (SEC)    =  0.17000    
       ELAPSED TOTAL CPU TIME (SEC) =  0.53000    
       ELAPSED WALLCLOCK TIME (SEC) =          0
  
     ASYNCHRONOUS TRACKING ELEMENT LOOP STARTED
  

                    2 SEVERE DISCONTINUITIES OCCURRED DURING THIS ITERATION.
                    1 POINTS CHANGED FROM OPEN TO CLOSED
                    1 POINTS CHANGED FROM STICKING TO SLIPPING

               CONVERGENCE CHECKS FOR SEVERE DISCONTINUITY ITERATION     1

   MAX. PENETRATION ERROR 3.00288E-03 AT NODE CAP-1.149 OF CONTACT PAIR 
   (ASSEMBLY_CAP-1_TRANSITION-AND-PUMP-CONTACT,ASSEMBLY_PUMP-TUBE-1_PISTON-CONTA
   CT)
   MAX. CONTACT FORCE ERROR 1.72106E+03 AT NODE CAP-1.149 OF CONTACT PAIR 
   (ASSEMBLY_CAP-1_TRANSITION-AND-PUMP-CONTACT,ASSEMBLY_PUMP-TUBE-1_PISTON-CONTA
   CT)
          PENETRATION ERROR TOO LARGE COMPARED TO DISPLACEMENT INCREMENT.

 AVERAGE FORCE                       223.       TIME AVG. FORCE        91.7    
 LARGEST RESIDUAL FORCE            -3.743E+03   AT NODE        145   DOF  2
   INSTANCE: CAP-1                                                                           
 LARGEST INCREMENT OF DISP.         0.576       AT NODE        218   DOF  2
   INSTANCE: CAP-1                                                                           
 LARGEST CORRECTION TO DISP.        8.248E-02   AT NODE        519   DOF  2
   INSTANCE: CAP-1                                                                           
          FORCE     EQUILIBRIUM NOT ACHIEVED WITHIN TOLERANCE.

  NUMBER OF EQUATIONS =    13596     NUMBER OF FLOATING PT. OPERATIONS =  3.42E+07

  USING THE DIRECT SOLVER WITH  12 PROCESSORS

     CHECK POINT   START OF SOLVER    

     CHECK POINT  END OF SOLVER       

       ELAPSED USER TIME (SEC)      =  0.38000    
       ELAPSED SYSTEM TIME (SEC)    =  0.15000    
       ELAPSED TOTAL CPU TIME (SEC) =  0.53000    
       ELAPSED WALLCLOCK TIME (SEC) =          0
 

 ***WARNING: THE SYSTEM MATRIX HAS 1 NEGATIVE EIGENVALUES.

     NEGATIVE EIGENVALUES MEAN THAT THE SYSTEM MATRIX IS NOT 
     POSITIVE DEFINITE:
     FOR EXAMPLE, A BIFURCATION (BUCKLING) LOAD MAY HAVE BEEN EXCEEDED.
  
     ASYNCHRONOUS TRACKING ELEMENT LOOP STARTED
  

               CONVERGENCE CHECKS FOR EQUILIBRIUM ITERATION     1

   MAX. PENETRATION ERROR 19.1781E-06  AT NODE CAP-1.1 OF CONTACT PAIR 
   (ASSEMBLY_CAP-1_TRANSITION-AND-PUMP-CONTACT,ASSEMBLY_TRANSITION-PIECE-1_END-C
   ONTACT)
   MAX. CONTACT FORCE ERROR 11.3623      AT NODE CAP-1.1 OF CONTACT PAIR 
   (ASSEMBLY_CAP-1_TRANSITION-AND-PUMP-CONTACT,ASSEMBLY_TRANSITION-PIECE-1_END-C
   ONTACT)
          THE CONTACT CONSTRAINTS HAVE CONVERGED.

 AVERAGE FORCE                       223.       TIME AVG. FORCE        91.7    
 LARGEST RESIDUAL FORCE              155.       AT NODE        519   DOF  1
   INSTANCE: CAP-1                                                                           
 LARGEST INCREMENT OF DISP.         0.572       AT NODE        218   DOF  2
   INSTANCE: CAP-1                                                                           
 LARGEST CORRECTION TO DISP.        1.834E-02   AT NODE        519   DOF  2
   INSTANCE: CAP-1                                                                           
          FORCE     EQUILIBRIUM NOT ACHIEVED WITHIN TOLERANCE.

  NUMBER OF EQUATIONS =    13596     NUMBER OF FLOATING PT. OPERATIONS =  3.42E+07

  USING THE DIRECT SOLVER WITH  12 PROCESSORS

     CHECK POINT   START OF SOLVER    

     CHECK POINT  END OF SOLVER       

       ELAPSED USER TIME (SEC)      =  0.43000    
       ELAPSED SYSTEM TIME (SEC)    =  0.10000    
       ELAPSED TOTAL CPU TIME (SEC) =  0.53000    
       ELAPSED WALLCLOCK TIME (SEC) =          0
  
     ASYNCHRONOUS TRACKING ELEMENT LOOP STARTED
  

               CONVERGENCE CHECKS FOR EQUILIBRIUM ITERATION     2

   MAX. PENETRATION ERROR 2.82316E-06 AT NODE CAP-1.69 OF CONTACT PAIR 
   (ASSEMBLY_CAP-1_TRANSITION-AND-PUMP-CONTACT,ASSEMBLY_TRANSITION-PIECE-1_END-C
   ONTACT)
   MAX. CONTACT FORCE ERROR 1.59482     AT NODE CAP-1.149 OF CONTACT PAIR 
   (ASSEMBLY_CAP-1_TRANSITION-AND-PUMP-CONTACT,ASSEMBLY_PUMP-TUBE-1_PISTON-CONTA
   CT)
          THE CONTACT CONSTRAINTS HAVE CONVERGED.

 AVERAGE FORCE                       223.       TIME AVG. FORCE        91.7    
 LARGEST RESIDUAL FORCE             -137.       AT NODE        519   DOF  2
   INSTANCE: CAP-1                                                                           
 LARGEST INCREMENT OF DISP.         0.574       AT NODE        218   DOF  2
   INSTANCE: CAP-1                                                                           
 LARGEST CORRECTION TO DISP.       -2.189E-02   AT NODE        519   DOF  2
   INSTANCE: CAP-1                                                                           
          FORCE     EQUILIBRIUM NOT ACHIEVED WITHIN TOLERANCE.

  NUMBER OF EQUATIONS =    13596     NUMBER OF FLOATING PT. OPERATIONS =  3.42E+07

  USING THE DIRECT SOLVER WITH  12 PROCESSORS

     CHECK POINT   START OF SOLVER    

     CHECK POINT  END OF SOLVER       

       ELAPSED USER TIME (SEC)      =  0.43000    
       ELAPSED SYSTEM TIME (SEC)    =  0.12000    
       ELAPSED TOTAL CPU TIME (SEC) =  0.55000    
       ELAPSED WALLCLOCK TIME (SEC) =          0
  
     ASYNCHRONOUS TRACKING ELEMENT LOOP STARTED
  

               CONVERGENCE CHECKS FOR EQUILIBRIUM ITERATION     3

   MAX. PENETRATION ERROR -272.200E-09   AT NODE CAP-1.149 OF CONTACT PAIR 
   (ASSEMBLY_CAP-1_TRANSITION-AND-PUMP-CONTACT,ASSEMBLY_PUMP-TUBE-1_PISTON-CONTA
   CT)
   MAX. CONTACT FORCE ERROR -155.708E-03   AT NODE CAP-1.149 OF CONTACT PAIR 
   (ASSEMBLY_CAP-1_TRANSITION-AND-PUMP-CONTACT,ASSEMBLY_PUMP-TUBE-1_PISTON-CONTA
   CT)
          THE CONTACT CONSTRAINTS HAVE CONVERGED.

 AVERAGE FORCE                       223.       TIME AVG. FORCE        91.7    
 LARGEST RESIDUAL FORCE             0.699       AT NODE        520   DOF  2
   INSTANCE: CAP-1                                                                           
 LARGEST INCREMENT OF DISP.         0.574       AT NODE        218   DOF  2
   INSTANCE: CAP-1                                                                           
 LARGEST CORRECTION TO DISP.       -9.363E-04   AT NODE        521   DOF  2
   INSTANCE: CAP-1                                                                           
          FORCE     EQUILIBRIUM NOT ACHIEVED WITHIN TOLERANCE.

  NUMBER OF EQUATIONS =    13596     NUMBER OF FLOATING PT. OPERATIONS =  3.42E+07

  USING THE DIRECT SOLVER WITH  12 PROCESSORS

     CHECK POINT   START OF SOLVER    

     CHECK POINT  END OF SOLVER       

       ELAPSED USER TIME (SEC)      =  0.38000    
       ELAPSED SYSTEM TIME (SEC)    =  0.17000    
       ELAPSED TOTAL CPU TIME (SEC) =  0.55000    
       ELAPSED WALLCLOCK TIME (SEC) =          0
  
     ASYNCHRONOUS TRACKING ELEMENT LOOP STARTED
  

               CONVERGENCE CHECKS FOR EQUILIBRIUM ITERATION     4

   MAX. PENETRATION ERROR 20.5546E-09  AT NODE CAP-1.149 OF CONTACT PAIR 
   (ASSEMBLY_CAP-1_TRANSITION-AND-PUMP-CONTACT,ASSEMBLY_PUMP-TUBE-1_PISTON-CONTA
   CT)
   MAX. CONTACT FORCE ERROR 11.7581E-03  AT NODE CAP-1.149 OF CONTACT PAIR 
   (ASSEMBLY_CAP-1_TRANSITION-AND-PUMP-CONTACT,ASSEMBLY_PUMP-TUBE-1_PISTON-CONTA
   CT)
          THE CONTACT CONSTRAINTS HAVE CONVERGED.

 AVERAGE FORCE                       223.       TIME AVG. FORCE        91.7    
 LARGEST RESIDUAL FORCE            -1.983E-02   AT NODE        216   DOF  1
   INSTANCE: CAP-1                                                                           
 LARGEST INCREMENT OF DISP.         0.574       AT NODE        218   DOF  2
   INSTANCE: CAP-1                                                                           
 LARGEST CORRECTION TO DISP.        7.304E-05   AT NODE        519   DOF  2
   INSTANCE: CAP-1                                                                           
          THE FORCE     EQUILIBRIUM EQUATIONS HAVE CONVERGED
          TIME INCREMENT MAY NOW INCREASE TO    3.000E-03
          TIME INCREMENT REDUCED TO   3.000E-05 TO MEET NEXT OUTPUT TIME POINT

 ITERATION SUMMARY FOR THE INCREMENT:   5 TOTAL ITERATIONS, OF WHICH
   1 ARE SEVERE DISCONTINUITY ITERATIONS AND  4 ARE EQUILIBRIUM ITERATIONS.

 TIME INCREMENT COMPLETED  3.000E-05,  FRACTION OF STEP COMPLETED  7.000E-02
 STEP TIME COMPLETED       2.100E-04,  TOTAL TIME COMPLETED        2.100E-04
  
     ASYNCHRONOUS OUTPUT DATABASE FRAME FLUSH STARTED
  


  INCREMENT     8 STARTS. ATTEMPT NUMBER  1, TIME INCREMENT  3.000E-05
  
     ASYNCHRONOUS TRACKING ELEMENT LOOP STARTED
  

  NUMBER OF EQUATIONS =    13596     NUMBER OF FLOATING PT. OPERATIONS =  3.28E+07

  USING THE DIRECT SOLVER WITH  12 PROCESSORS

     CHECK POINT   START OF SOLVER    

     CHECK POINT  END OF SOLVER       

       ELAPSED USER TIME (SEC)      =  0.42000    
       ELAPSED SYSTEM TIME (SEC)    =  0.16000    
       ELAPSED TOTAL CPU TIME (SEC) =  0.58000    
       ELAPSED WALLCLOCK TIME (SEC) =          1
  
     ASYNCHRONOUS TRACKING ELEMENT LOOP STARTED
  

                    3 SEVERE DISCONTINUITIES OCCURRED DURING THIS ITERATION.
                    1 POINTS CHANGED FROM OPEN TO CLOSED
                    1 POINTS CHANGED FROM CLOSED TO OPEN
                    1 POINTS CHANGED FROM STICKING TO SLIPPING

               CONVERGENCE CHECKS FOR SEVERE DISCONTINUITY ITERATION     1

   MAX. PENETRATION ERROR 21.7716E-03  AT NODE CAP-1.149 OF CONTACT PAIR 
   (ASSEMBLY_CAP-1_TRANSITION-AND-PUMP-CONTACT,ASSEMBLY_TRANSITION-PIECE-1_END-C
   ONTACT)
   MAX. CONTACT FORCE ERROR 12.1912E+03  AT NODE CAP-1.149 OF CONTACT PAIR 
   (ASSEMBLY_CAP-1_TRANSITION-AND-PUMP-CONTACT,ASSEMBLY_TRANSITION-PIECE-1_END-C
   ONTACT)
          PENETRATION ERROR TOO LARGE COMPARED TO DISPLACEMENT INCREMENT.

 AVERAGE FORCE                       225.       TIME AVG. FORCE        108.    
 LARGEST RESIDUAL FORCE             2.210E+03   AT NODE        520   DOF  2
   INSTANCE: CAP-1                                                                           
 LARGEST INCREMENT OF DISP.         0.500       AT NODE        218   DOF  2
   INSTANCE: CAP-1                                                                           
 LARGEST CORRECTION TO DISP.       -0.135       AT NODE        519   DOF  2
   INSTANCE: CAP-1                                                                           
          FORCE     EQUILIBRIUM NOT ACHIEVED WITHIN TOLERANCE.

  NUMBER OF EQUATIONS =    13596     NUMBER OF FLOATING PT. OPERATIONS =  3.28E+07

  USING THE DIRECT SOLVER WITH  12 PROCESSORS

     CHECK POINT   START OF SOLVER    

     CHECK POINT  END OF SOLVER       

       ELAPSED USER TIME (SEC)      =  0.40000    
       ELAPSED SYSTEM TIME (SEC)    =  0.19000    
       ELAPSED TOTAL CPU TIME (SEC) =  0.59000    
       ELAPSED WALLCLOCK TIME (SEC) =          0
  
     ASYNCHRONOUS TRACKING ELEMENT LOOP STARTED
  

               CONVERGENCE CHECKS FOR EQUILIBRIUM ITERATION     1

   MAX. PENETRATION ERROR 376.016E-06   AT NODE CAP-1.149 OF CONTACT PAIR 
   (ASSEMBLY_CAP-1_TRANSITION-AND-PUMP-CONTACT,ASSEMBLY_TRANSITION-PIECE-1_END-C
   ONTACT)
   MAX. CONTACT FORCE ERROR 209.937       AT NODE CAP-1.149 OF CONTACT PAIR 
   (ASSEMBLY_CAP-1_TRANSITION-AND-PUMP-CONTACT,ASSEMBLY_TRANSITION-PIECE-1_END-C
   ONTACT)
          THE ESTIMATED CONTACT FORCE ERROR IS OUTSIDE OF CONVERGENCE TOLERANCES.

 AVERAGE FORCE                       227.       TIME AVG. FORCE        109.    
 LARGEST RESIDUAL FORCE              162.       AT NODE        145   DOF  1
   INSTANCE: CAP-1                                                                           
 LARGEST INCREMENT OF DISP.         0.497       AT NODE        218   DOF  2
   INSTANCE: CAP-1                                                                           
 LARGEST CORRECTION TO DISP.       -3.886E-02   AT NODE        149   DOF  1
   INSTANCE: CAP-1                                                                           
          FORCE     EQUILIBRIUM NOT ACHIEVED WITHIN TOLERANCE.

  NUMBER OF EQUATIONS =    13596     NUMBER OF FLOATING PT. OPERATIONS =  3.28E+07

  USING THE DIRECT SOLVER WITH  12 PROCESSORS

     CHECK POINT   START OF SOLVER    

     CHECK POINT  END OF SOLVER       

       ELAPSED USER TIME (SEC)      =  0.39000    
       ELAPSED SYSTEM TIME (SEC)    =  0.18000    
       ELAPSED TOTAL CPU TIME (SEC) =  0.57000    
       ELAPSED WALLCLOCK TIME (SEC) =          0
  
     ASYNCHRONOUS TRACKING ELEMENT LOOP STARTED
  

               CONVERGENCE CHECKS FOR EQUILIBRIUM ITERATION     2

   MAX. PENETRATION ERROR -2.49857E-06 AT NODE CAP-1.149 OF CONTACT PAIR 
   (ASSEMBLY_CAP-1_TRANSITION-AND-PUMP-CONTACT,ASSEMBLY_TRANSITION-PIECE-1_END-C
   ONTACT)
   MAX. CONTACT FORCE ERROR -1.39610     AT NODE CAP-1.149 OF CONTACT PAIR 
   (ASSEMBLY_CAP-1_TRANSITION-AND-PUMP-CONTACT,ASSEMBLY_TRANSITION-PIECE-1_END-C
   ONTACT)
          THE CONTACT CONSTRAINTS HAVE CONVERGED.

 AVERAGE FORCE                       227.       TIME AVG. FORCE        109.    
 LARGEST RESIDUAL FORCE             -35.1       AT NODE        519   DOF  2
   INSTANCE: CAP-1                                                                           
 LARGEST INCREMENT OF DISP.         0.496       AT NODE        218   DOF  2
   INSTANCE: CAP-1                                                                           
 LARGEST CORRECTION TO DISP.        1.220E-02   AT NODE        519   DOF  2
   INSTANCE: CAP-1                                                                           
          FORCE     EQUILIBRIUM NOT ACHIEVED WITHIN TOLERANCE.

  NUMBER OF EQUATIONS =    13596     NUMBER OF FLOATING PT. OPERATIONS =  3.28E+07

  USING THE DIRECT SOLVER WITH  12 PROCESSORS

     CHECK POINT   START OF SOLVER    

     CHECK POINT  END OF SOLVER       

       ELAPSED USER TIME (SEC)      =  0.43000    
       ELAPSED SYSTEM TIME (SEC)    =  0.17000    
       ELAPSED TOTAL CPU TIME (SEC) =  0.60000    
       ELAPSED WALLCLOCK TIME (SEC) =          0
  
     ASYNCHRONOUS TRACKING ELEMENT LOOP STARTED
  

               CONVERGENCE CHECKS FOR EQUILIBRIUM ITERATION     3

   MAX. PENETRATION ERROR -335.719E-09   AT NODE CAP-1.149 OF CONTACT PAIR 
   (ASSEMBLY_CAP-1_TRANSITION-AND-PUMP-CONTACT,ASSEMBLY_TRANSITION-PIECE-1_END-C
   ONTACT)
   MAX. CONTACT FORCE ERROR -187.615E-03   AT NODE CAP-1.149 OF CONTACT PAIR 
   (ASSEMBLY_CAP-1_TRANSITION-AND-PUMP-CONTACT,ASSEMBLY_TRANSITION-PIECE-1_END-C
   ONTACT)
          THE CONTACT CONSTRAINTS HAVE CONVERGED.

 AVERAGE FORCE                       227.       TIME AVG. FORCE        109.    
 LARGEST RESIDUAL FORCE             0.163       AT NODE         69   DOF  1
   INSTANCE: CAP-1                                                                           
 LARGEST INCREMENT OF DISP.         0.496       AT NODE        218   DOF  2
   INSTANCE: CAP-1                                                                           
 LARGEST CORRECTION TO DISP.        6.325E-04   AT NODE        519   DOF  2
   INSTANCE: CAP-1                                                                           
          THE FORCE     EQUILIBRIUM EQUATIONS HAVE CONVERGED
          TIME INCREMENT MAY NOW INCREASE TO    3.000E-03
          TIME INCREMENT REDUCED TO   3.000E-05 TO MEET NEXT OUTPUT TIME POINT

 ITERATION SUMMARY FOR THE INCREMENT:   4 TOTAL ITERATIONS, OF WHICH
   1 ARE SEVERE DISCONTINUITY ITERATIONS AND  3 ARE EQUILIBRIUM ITERATIONS.

 TIME INCREMENT COMPLETED  3.000E-05,  FRACTION OF STEP COMPLETED  8.000E-02
 STEP TIME COMPLETED       2.400E-04,  TOTAL TIME COMPLETED        2.400E-04
  
     ASYNCHRONOUS OUTPUT DATABASE FRAME FLUSH STARTED
  


  INCREMENT     9 STARTS. ATTEMPT NUMBER  1, TIME INCREMENT  3.000E-05
  
     ASYNCHRONOUS TRACKING ELEMENT LOOP STARTED
  

  NUMBER OF EQUATIONS =    13596     NUMBER OF FLOATING PT. OPERATIONS =  3.28E+07

  USING THE DIRECT SOLVER WITH  12 PROCESSORS

     CHECK POINT   START OF SOLVER    

     CHECK POINT  END OF SOLVER       

       ELAPSED USER TIME (SEC)      =  0.45000    
       ELAPSED SYSTEM TIME (SEC)    =  0.14000    
       ELAPSED TOTAL CPU TIME (SEC) =  0.59000    
       ELAPSED WALLCLOCK TIME (SEC) =          0
  
     ASYNCHRONOUS TRACKING ELEMENT LOOP STARTED
  

                    1 SEVERE DISCONTINUITIES OCCURRED DURING THIS ITERATION.
                    1 POINTS CHANGED FROM CLOSED TO OPEN

               CONVERGENCE CHECKS FOR SEVERE DISCONTINUITY ITERATION     1

   MAX. PENETRATION ERROR 466.760E-06   AT NODE CAP-1.1 OF CONTACT PAIR 
   (ASSEMBLY_CAP-1_TRANSITION-AND-PUMP-CONTACT,ASSEMBLY_TRANSITION-PIECE-1_END-C
   ONTACT)
   MAX. CONTACT FORCE ERROR -727.448       AT NODE CAP-1.32 OF CONTACT PAIR 
   (ASSEMBLY_CAP-1_TRANSITION-AND-PUMP-CONTACT,ASSEMBLY_PUMP-TUBE-1_PISTON-CONTA
   CT)
          THE ESTIMATED CONTACT FORCE ERROR IS OUTSIDE OF CONVERGENCE TOLERANCES.

 AVERAGE FORCE                       264.       TIME AVG. FORCE        126.    
 LARGEST RESIDUAL FORCE            -2.038E+03   AT NODE        519   DOF  2
   INSTANCE: CAP-1                                                                           
 LARGEST INCREMENT OF DISP.         0.423       AT NODE        218   DOF  2
   INSTANCE: CAP-1                                                                           
 LARGEST CORRECTION TO DISP.       -0.105       AT NODE          7   DOF  2
   INSTANCE: CAP-1                                                                           
          FORCE     EQUILIBRIUM NOT ACHIEVED WITHIN TOLERANCE.

  NUMBER OF EQUATIONS =    13596     NUMBER OF FLOATING PT. OPERATIONS =  3.25E+07

  USING THE DIRECT SOLVER WITH  12 PROCESSORS

     CHECK POINT   START OF SOLVER    

     CHECK POINT  END OF SOLVER       

       ELAPSED USER TIME (SEC)      =  0.40000    
       ELAPSED SYSTEM TIME (SEC)    =  0.14000    
       ELAPSED TOTAL CPU TIME (SEC) =  0.54000    
       ELAPSED WALLCLOCK TIME (SEC) =          0
  
     ASYNCHRONOUS TRACKING ELEMENT LOOP STARTED
  

               CONVERGENCE CHECKS FOR EQUILIBRIUM ITERATION     1

   MAX. PENETRATION ERROR 9.21195E-06 AT NODE CAP-1.153 OF CONTACT PAIR 
   (ASSEMBLY_CAP-1_TRANSITION-AND-PUMP-CONTACT,ASSEMBLY_PUMP-TUBE-1_PISTON-CONTA
   CT)
   MAX. CONTACT FORCE ERROR 7.28025     AT NODE CAP-1.153 OF CONTACT PAIR 
   (ASSEMBLY_CAP-1_TRANSITION-AND-PUMP-CONTACT,ASSEMBLY_PUMP-TUBE-1_PISTON-CONTA
   CT)
          THE CONTACT CONSTRAINTS HAVE CONVERGED.

 AVERAGE FORCE                       263.       TIME AVG. FORCE        126.    
 LARGEST RESIDUAL FORCE              68.7       AT NODE        151   DOF  1
   INSTANCE: CAP-1                                                                           
 LARGEST INCREMENT OF DISP.         0.428       AT NODE        218   DOF  2
   INSTANCE: CAP-1                                                                           
 LARGEST CORRECTION TO DISP.        2.078E-02   AT NODE         69   DOF  2
   INSTANCE: CAP-1                                                                           
          FORCE     EQUILIBRIUM NOT ACHIEVED WITHIN TOLERANCE.

  NUMBER OF EQUATIONS =    13596     NUMBER OF FLOATING PT. OPERATIONS =  3.25E+07

  USING THE DIRECT SOLVER WITH  12 PROCESSORS

     CHECK POINT   START OF SOLVER    

     CHECK POINT  END OF SOLVER       

       ELAPSED USER TIME (SEC)      =  0.39000    
       ELAPSED SYSTEM TIME (SEC)    =  0.15000    
       ELAPSED TOTAL CPU TIME (SEC) =  0.54000    
       ELAPSED WALLCLOCK TIME (SEC) =          1
  
     ASYNCHRONOUS TRACKING ELEMENT LOOP STARTED
  

               CONVERGENCE CHECKS FOR EQUILIBRIUM ITERATION     2

   MAX. PENETRATION ERROR 114.544E-09   AT NODE CAP-1.69 OF CONTACT PAIR 
   (ASSEMBLY_CAP-1_TRANSITION-AND-PUMP-CONTACT,ASSEMBLY_TRANSITION-PIECE-1_END-C
   ONTACT)
   MAX. CONTACT FORCE ERROR 44.8844E-03  AT NODE CAP-1.69 OF CONTACT PAIR 
   (ASSEMBLY_CAP-1_TRANSITION-AND-PUMP-CONTACT,ASSEMBLY_TRANSITION-PIECE-1_END-C
   ONTACT)
          THE CONTACT CONSTRAINTS HAVE CONVERGED.

 AVERAGE FORCE                       264.       TIME AVG. FORCE        126.    
 LARGEST RESIDUAL FORCE             -8.77       AT NODE        519   DOF  2
   INSTANCE: CAP-1                                                                           
 LARGEST INCREMENT OF DISP.         0.428       AT NODE        218   DOF  2
   INSTANCE: CAP-1                                                                           
 LARGEST CORRECTION TO DISP.       -6.134E-03   AT NODE        519   DOF  2
   INSTANCE: CAP-1                                                                           
          FORCE     EQUILIBRIUM NOT ACHIEVED WITHIN TOLERANCE.

  NUMBER OF EQUATIONS =    13596     NUMBER OF FLOATING PT. OPERATIONS =  3.25E+07

  USING THE DIRECT SOLVER WITH  12 PROCESSORS

     CHECK POINT   START OF SOLVER    

     CHECK POINT  END OF SOLVER       

       ELAPSED USER TIME (SEC)      =  0.39000    
       ELAPSED SYSTEM TIME (SEC)    =  0.16000    
       ELAPSED TOTAL CPU TIME (SEC) =  0.55000    
       ELAPSED WALLCLOCK TIME (SEC) =          0
  
     ASYNCHRONOUS TRACKING ELEMENT LOOP STARTED
  

               CONVERGENCE CHECKS FOR EQUILIBRIUM ITERATION     3

   MAX. PENETRATION ERROR 235.164E-12   AT NODE CAP-1.1 OF CONTACT PAIR 
   (ASSEMBLY_CAP-1_TRANSITION-AND-PUMP-CONTACT,ASSEMBLY_TRANSITION-PIECE-1_END-C
   ONTACT)
   MAX. CONTACT FORCE ERROR 160.681E-06   AT NODE CAP-1.1 OF CONTACT PAIR 
   (ASSEMBLY_CAP-1_TRANSITION-AND-PUMP-CONTACT,ASSEMBLY_TRANSITION-PIECE-1_END-C
   ONTACT)
          THE CONTACT CONSTRAINTS HAVE CONVERGED.

 AVERAGE FORCE                       264.       TIME AVG. FORCE        126.    
 LARGEST RESIDUAL FORCE             3.018E-02   AT NODE          2   DOF  1
   INSTANCE: CAP-1                                                                           
 LARGEST INCREMENT OF DISP.         0.428       AT NODE        218   DOF  2
   INSTANCE: CAP-1                                                                           
 LARGEST CORRECTION TO DISP.       -1.085E-04   AT NODE          1   DOF  2
   INSTANCE: CAP-1                                                                           
          THE FORCE     EQUILIBRIUM EQUATIONS HAVE CONVERGED
          TIME INCREMENT MAY NOW INCREASE TO    3.000E-03
          TIME INCREMENT REDUCED TO   3.000E-05 TO MEET NEXT OUTPUT TIME POINT

 ITERATION SUMMARY FOR THE INCREMENT:   4 TOTAL ITERATIONS, OF WHICH
   1 ARE SEVERE DISCONTINUITY ITERATIONS AND  3 ARE EQUILIBRIUM ITERATIONS.

 TIME INCREMENT COMPLETED  3.000E-05,  FRACTION OF STEP COMPLETED  9.000E-02
 STEP TIME COMPLETED       2.700E-04,  TOTAL TIME COMPLETED        2.700E-04
  
     ASYNCHRONOUS OUTPUT DATABASE FRAME FLUSH STARTED
  


  INCREMENT    10 STARTS. ATTEMPT NUMBER  1, TIME INCREMENT  3.000E-05
  
     ASYNCHRONOUS TRACKING ELEMENT LOOP STARTED
  

  NUMBER OF EQUATIONS =    13596     NUMBER OF FLOATING PT. OPERATIONS =  3.31E+07

  USING THE DIRECT SOLVER WITH  12 PROCESSORS

     CHECK POINT   START OF SOLVER    

     CHECK POINT  END OF SOLVER       

       ELAPSED USER TIME (SEC)      =  0.42000    
       ELAPSED SYSTEM TIME (SEC)    =  0.13000    
       ELAPSED TOTAL CPU TIME (SEC) =  0.55000    
       ELAPSED WALLCLOCK TIME (SEC) =          0
  
     ASYNCHRONOUS TRACKING ELEMENT LOOP STARTED
  

               CONVERGENCE CHECKS FOR EQUILIBRIUM ITERATION     1

   MAX. PENETRATION ERROR 548.439E-06   AT NODE CAP-1.149 OF CONTACT PAIR 
   (ASSEMBLY_CAP-1_TRANSITION-AND-PUMP-CONTACT,ASSEMBLY_TRANSITION-PIECE-1_END-C
   ONTACT)
   MAX. CONTACT FORCE ERROR 395.845       AT NODE CAP-1.149 OF CONTACT PAIR 
   (ASSEMBLY_CAP-1_TRANSITION-AND-PUMP-CONTACT,ASSEMBLY_TRANSITION-PIECE-1_END-C
   ONTACT)
          THE ESTIMATED CONTACT FORCE ERROR IS OUTSIDE OF CONVERGENCE TOLERANCES.

 AVERAGE FORCE                       283.       TIME AVG. FORCE        142.    
 LARGEST RESIDUAL FORCE              134.       AT NODE        217   DOF  2
   INSTANCE: CAP-1                                                                           
 LARGEST INCREMENT OF DISP.         0.339       AT NODE         38   DOF  2
   INSTANCE: CAP-1                                                                           
 LARGEST CORRECTION TO DISP.       -0.115       AT NODE          1   DOF  2
   INSTANCE: CAP-1                                                                           
          FORCE     EQUILIBRIUM NOT ACHIEVED WITHIN TOLERANCE.

  NUMBER OF EQUATIONS =    13596     NUMBER OF FLOATING PT. OPERATIONS =  3.32E+07

  USING THE DIRECT SOLVER WITH  12 PROCESSORS

     CHECK POINT   START OF SOLVER    

     CHECK POINT  END OF SOLVER       

       ELAPSED USER TIME (SEC)      =  0.35000    
       ELAPSED SYSTEM TIME (SEC)    =  0.19000    
       ELAPSED TOTAL CPU TIME (SEC) =  0.54000    
       ELAPSED WALLCLOCK TIME (SEC) =          0
  
     ASYNCHRONOUS TRACKING ELEMENT LOOP STARTED
  

               CONVERGENCE CHECKS FOR EQUILIBRIUM ITERATION     2

   MAX. PENETRATION ERROR 1.53124E-06 AT NODE CAP-1.149 OF CONTACT PAIR 
   (ASSEMBLY_CAP-1_TRANSITION-AND-PUMP-CONTACT,ASSEMBLY_TRANSITION-PIECE-1_END-C
   ONTACT)
   MAX. CONTACT FORCE ERROR 1.10420     AT NODE CAP-1.149 OF CONTACT PAIR 
   (ASSEMBLY_CAP-1_TRANSITION-AND-PUMP-CONTACT,ASSEMBLY_TRANSITION-PIECE-1_END-C
   ONTACT)
          THE CONTACT CONSTRAINTS HAVE CONVERGED.

 AVERAGE FORCE                       283.       TIME AVG. FORCE        142.    
 LARGEST RESIDUAL FORCE             -2.75       AT NODE          1   DOF  1
   INSTANCE: CAP-1                                                                           
 LARGEST INCREMENT OF DISP.         0.339       AT NODE         38   DOF  2
   INSTANCE: CAP-1                                                                           
 LARGEST CORRECTION TO DISP.       -3.731E-03   AT NODE          1   DOF  2
   INSTANCE: CAP-1                                                                           
          FORCE     EQUILIBRIUM NOT ACHIEVED WITHIN TOLERANCE.

  NUMBER OF EQUATIONS =    13596     NUMBER OF FLOATING PT. OPERATIONS =  3.32E+07

  USING THE DIRECT SOLVER WITH  12 PROCESSORS

     CHECK POINT   START OF SOLVER    

     CHECK POINT  END OF SOLVER       

       ELAPSED USER TIME (SEC)      =  0.32000    
       ELAPSED SYSTEM TIME (SEC)    =  0.21000    
       ELAPSED TOTAL CPU TIME (SEC) =  0.53000    
       ELAPSED WALLCLOCK TIME (SEC) =          0
  
     ASYNCHRONOUS TRACKING ELEMENT LOOP STARTED
  

               CONVERGENCE CHECKS FOR EQUILIBRIUM ITERATION     3

   MAX. PENETRATION ERROR -68.9350E-09  AT NODE CAP-1.149 OF CONTACT PAIR 
   (ASSEMBLY_CAP-1_TRANSITION-AND-PUMP-CONTACT,ASSEMBLY_TRANSITION-PIECE-1_END-C
   ONTACT)
   MAX. CONTACT FORCE ERROR -49.7115E-03  AT NODE CAP-1.149 OF CONTACT PAIR 
   (ASSEMBLY_CAP-1_TRANSITION-AND-PUMP-CONTACT,ASSEMBLY_TRANSITION-PIECE-1_END-C
   ONTACT)
          THE CONTACT CONSTRAINTS HAVE CONVERGED.

 AVERAGE FORCE                       283.       TIME AVG. FORCE        142.    
 LARGEST RESIDUAL FORCE            -3.878E-02   AT NODE          2   DOF  1
   INSTANCE: CAP-1                                                                           
 LARGEST INCREMENT OF DISP.         0.339       AT NODE         38   DOF  2
   INSTANCE: CAP-1                                                                           
 LARGEST CORRECTION TO DISP.        1.362E-04   AT NODE          1   DOF  2
   INSTANCE: CAP-1                                                                           
          THE FORCE     EQUILIBRIUM EQUATIONS HAVE CONVERGED
          TIME INCREMENT MAY NOW INCREASE TO    3.000E-03
          TIME INCREMENT REDUCED TO   3.000E-05 TO MEET NEXT OUTPUT TIME POINT

 ITERATION SUMMARY FOR THE INCREMENT:   3 TOTAL ITERATIONS, OF WHICH
   0 ARE SEVERE DISCONTINUITY ITERATIONS AND  3 ARE EQUILIBRIUM ITERATIONS.

 TIME INCREMENT COMPLETED  3.000E-05,  FRACTION OF STEP COMPLETED  0.100    
 STEP TIME COMPLETED       3.000E-04,  TOTAL TIME COMPLETED        3.000E-04
  
     ASYNCHRONOUS OUTPUT DATABASE FRAME FLUSH STARTED
  


  INCREMENT    11 STARTS. ATTEMPT NUMBER  1, TIME INCREMENT  3.000E-05
  
     ASYNCHRONOUS TRACKING ELEMENT LOOP STARTED
  

  NUMBER OF EQUATIONS =    13596     NUMBER OF FLOATING PT. OPERATIONS =  3.32E+07

  USING THE DIRECT SOLVER WITH  12 PROCESSORS

     CHECK POINT   START OF SOLVER    

     CHECK POINT  END OF SOLVER       

       ELAPSED USER TIME (SEC)      =  0.41000    
       ELAPSED SYSTEM TIME (SEC)    =  0.13000    
       ELAPSED TOTAL CPU TIME (SEC) =  0.54000    
       ELAPSED WALLCLOCK TIME (SEC) =          0
  
     ASYNCHRONOUS TRACKING ELEMENT LOOP STARTED
  

               CONVERGENCE CHECKS FOR EQUILIBRIUM ITERATION     1

   MAX. PENETRATION ERROR -906.107E-06   AT NODE CAP-1.149 OF CONTACT PAIR 
[...]
   MAX. CONTACT FORCE ERROR 15.9703      AT NODE PISTON-1.1 OF CONTACT PAIR 
   (ASSEMBLY_PISTON-1_PUMP-CONTACT,ASSEMBLY_TUBE-INNER)
          THE CONTACT CONSTRAINT ERRORS ARE WITHIN THE TOLERANCES.

 AVERAGE FORCE                       109.       TIME AVG. FORCE        96.1    
 LARGEST RESIDUAL FORCE             -9.64       AT NODE         31   DOF  1
   INSTANCE: CAP-1                                                                           
 LARGEST INCREMENT OF DISP.        -6.313E-03   AT NODE        189   DOF  2
   INSTANCE: CAP-1                                                                           
 LARGEST CORRECTION TO DISP.        4.086E-03   AT NODE         43   DOF  2
   INSTANCE: CAP-1                                                                           
          FORCE     EQUILIBRIUM NOT ACHIEVED WITHIN TOLERANCE.

  NUMBER OF EQUATIONS =    13596     NUMBER OF FLOATING PT. OPERATIONS =  3.32E+07

  USING THE DIRECT SOLVER WITH  12 PROCESSORS

     CHECK POINT   START OF SOLVER    

     CHECK POINT  END OF SOLVER       

       ELAPSED USER TIME (SEC)      =  0.45000    
       ELAPSED SYSTEM TIME (SEC)    =  0.11000    
       ELAPSED TOTAL CPU TIME (SEC) =  0.56000    
       ELAPSED WALLCLOCK TIME (SEC) =          0
  
     ASYNCHRONOUS TRACKING ELEMENT LOOP STARTED
  

               CONVERGENCE CHECKS FOR EQUILIBRIUM ITERATION     1

   MAX. PENETRATION ERROR -219.672E-12   AT NODE CAP-1.519 OF CONTACT PAIR 
   (ASSEMBLY_CAP-1_TRANSITION-AND-PUMP-CONTACT,ASSEMBLY_TRANSITION-PIECE-1_END-C
   ONTACT)
   MAX. CONTACT FORCE ERROR 119.875E-06   AT NODE CAP-1.157 OF CONTACT PAIR 
   (ASSEMBLY_CAP-1_TRANSITION-AND-PUMP-CONTACT,ASSEMBLY_PUMP-TUBE-1_PISTON-CONTA
   CT)
          THE CONTACT CONSTRAINTS HAVE CONVERGED.

 AVERAGE FORCE                       109.       TIME AVG. FORCE        96.1    
 LARGEST RESIDUAL FORCE            -1.313E-02   AT NODE        157   DOF  2
   INSTANCE: CAP-1                                                                           
 LARGEST INCREMENT OF DISP.        -6.329E-03   AT NODE        189   DOF  2
   INSTANCE: CAP-1                                                                           
 LARGEST CORRECTION TO DISP.       -2.245E-04   AT NODE         29   DOF  2
   INSTANCE: CAP-1                                                                           
 ESTIMATE OF DISP.    CORRECTION    1.845E-07
 FORCE     EQUILIB. ACCEPTED BASED ON SMALL RESIDUAL AND ESTIMATED CORRECTION
          TIME INCREMENT MAY NOW INCREASE TO    3.797E-05
          TIME INCREMENT REDUCED TO   3.000E-05 TO MEET NEXT OUTPUT TIME POINT

 ITERATION SUMMARY FOR THE INCREMENT:   2 TOTAL ITERATIONS, OF WHICH
   1 ARE SEVERE DISCONTINUITY ITERATIONS AND  1 ARE EQUILIBRIUM ITERATIONS.

 TIME INCREMENT COMPLETED  3.000E-05,  FRACTION OF STEP COMPLETED  0.960    
 STEP TIME COMPLETED       2.880E-03,  TOTAL TIME COMPLETED        2.880E-03
  
     ASYNCHRONOUS OUTPUT DATABASE FRAME FLUSH STARTED
  


  INCREMENT   155 STARTS. ATTEMPT NUMBER  1, TIME INCREMENT  3.000E-05
  
     ASYNCHRONOUS TRACKING ELEMENT LOOP STARTED
  

                   10 SEVERE DISCONTINUITIES OCCURRED DURING INCREMENT ATTEMPT INITIALIZATION.
                   10 POINTS CHANGED FROM STICKING TO SLIPPING

  NUMBER OF EQUATIONS =    13596     NUMBER OF FLOATING PT. OPERATIONS =  3.32E+07

  USING THE DIRECT SOLVER WITH  12 PROCESSORS

     CHECK POINT   START OF SOLVER    

     CHECK POINT  END OF SOLVER       

       ELAPSED USER TIME (SEC)      =  0.44000    
       ELAPSED SYSTEM TIME (SEC)    =  0.10000    
       ELAPSED TOTAL CPU TIME (SEC) =  0.54000    
       ELAPSED WALLCLOCK TIME (SEC) =          0
  
     ASYNCHRONOUS TRACKING ELEMENT LOOP STARTED
  

                    1 SEVERE DISCONTINUITIES OCCURRED DURING THIS ITERATION.
                    1 POINTS CHANGED FROM SLIPPING TO STICKING

               CONVERGENCE CHECKS FOR SEVERE DISCONTINUITY ITERATION     1

   MAX. PENETRATION ERROR -183.885E-09   AT NODE CAP-1.519 OF CONTACT PAIR 
   (ASSEMBLY_CAP-1_TRANSITION-AND-PUMP-CONTACT,ASSEMBLY_TRANSITION-PIECE-1_END-C
   ONTACT)
   MAX. CONTACT FORCE ERROR -107.182E-03   AT NODE PISTON-1.278 OF CONTACT PAIR 
   (ASSEMBLY_PISTON-1_PUMP-CONTACT,ASSEMBLY_TUBE-INNER)
          THE CONTACT CONSTRAINT ERRORS ARE WITHIN THE TOLERANCES.

 AVERAGE FORCE                       108.       TIME AVG. FORCE        96.2    
 LARGEST RESIDUAL FORCE              3.17       AT NODE        408   DOF  2
   INSTANCE: PISTON-1                                                                        
 LARGEST INCREMENT OF DISP.        -2.538E-03   AT NODE        210   DOF  2
   INSTANCE: CAP-1                                                                           
 LARGEST CORRECTION TO DISP.        4.416E-03   AT NODE          8   DOF  2
   INSTANCE: PISTON-1                                                                        
          FORCE     EQUILIBRIUM NOT ACHIEVED WITHIN TOLERANCE.

  NUMBER OF EQUATIONS =    13596     NUMBER OF FLOATING PT. OPERATIONS =  3.32E+07

  USING THE DIRECT SOLVER WITH  12 PROCESSORS

     CHECK POINT   START OF SOLVER    

     CHECK POINT  END OF SOLVER       

       ELAPSED USER TIME (SEC)      =  0.35000    
       ELAPSED SYSTEM TIME (SEC)    =  0.19000    
       ELAPSED TOTAL CPU TIME (SEC) =  0.54000    
       ELAPSED WALLCLOCK TIME (SEC) =          0
  
     ASYNCHRONOUS TRACKING ELEMENT LOOP STARTED
  

               CONVERGENCE CHECKS FOR EQUILIBRIUM ITERATION     1

   MAX. PENETRATION ERROR -4.21961E-12 AT NODE CAP-1.519 OF CONTACT PAIR 
   (ASSEMBLY_CAP-1_TRANSITION-AND-PUMP-CONTACT,ASSEMBLY_TRANSITION-PIECE-1_END-C
   ONTACT)
   MAX. CONTACT FORCE ERROR 3.31877E-06 AT NODE PISTON-1.408 OF CONTACT PAIR 
   (ASSEMBLY_PISTON-1_PUMP-CONTACT,ASSEMBLY_TUBE-INNER)
          THE CONTACT CONSTRAINTS HAVE CONVERGED.

 AVERAGE FORCE                       108.       TIME AVG. FORCE        96.2    
 LARGEST RESIDUAL FORCE            -5.854E-04   AT NODE          1   DOF  1
   INSTANCE: PISTON-1                                                                        
 LARGEST INCREMENT OF DISP.        -2.537E-03   AT NODE        210   DOF  2
   INSTANCE: CAP-1                                                                           
 LARGEST CORRECTION TO DISP.       -8.968E-06   AT NODE        519   DOF  2
   INSTANCE: CAP-1                                                                           
          THE FORCE     EQUILIBRIUM EQUATIONS HAVE CONVERGED
          TIME INCREMENT MAY NOW INCREASE TO    3.797E-05
          TIME INCREMENT REDUCED TO   3.000E-05 TO MEET NEXT OUTPUT TIME POINT

 ITERATION SUMMARY FOR THE INCREMENT:   2 TOTAL ITERATIONS, OF WHICH
   1 ARE SEVERE DISCONTINUITY ITERATIONS AND  1 ARE EQUILIBRIUM ITERATIONS.

 TIME INCREMENT COMPLETED  3.000E-05,  FRACTION OF STEP COMPLETED  0.970    
 STEP TIME COMPLETED       2.910E-03,  TOTAL TIME COMPLETED        2.910E-03
  
     ASYNCHRONOUS OUTPUT DATABASE FRAME FLUSH STARTED
  


  INCREMENT   156 STARTS. ATTEMPT NUMBER  1, TIME INCREMENT  3.000E-05
  
     ASYNCHRONOUS TRACKING ELEMENT LOOP STARTED
  

  NUMBER OF EQUATIONS =    13596     NUMBER OF FLOATING PT. OPERATIONS =  3.32E+07

  USING THE DIRECT SOLVER WITH  12 PROCESSORS

     CHECK POINT   START OF SOLVER    

     CHECK POINT  END OF SOLVER       

       ELAPSED USER TIME (SEC)      =  0.42000    
       ELAPSED SYSTEM TIME (SEC)    =  0.13000    
       ELAPSED TOTAL CPU TIME (SEC) =  0.55000    
       ELAPSED WALLCLOCK TIME (SEC) =          1
  
     ASYNCHRONOUS TRACKING ELEMENT LOOP STARTED
  

                   55 SEVERE DISCONTINUITIES OCCURRED DURING THIS ITERATION.
                    1 POINTS CHANGED FROM CLOSED TO OPEN
                   54 POINTS CHANGED FROM SLIPPING TO STICKING

               CONVERGENCE CHECKS FOR SEVERE DISCONTINUITY ITERATION     1

   MAX. PENETRATION ERROR -484.669E-09   AT NODE CAP-1.519 OF CONTACT PAIR 
   (ASSEMBLY_CAP-1_TRANSITION-AND-PUMP-CONTACT,ASSEMBLY_TRANSITION-PIECE-1_END-C
   ONTACT)
   MAX. CONTACT FORCE ERROR -32.2430      AT NODE PISTON-1.1 OF CONTACT PAIR 
   (ASSEMBLY_PISTON-1_PUMP-CONTACT,ASSEMBLY_TUBE-INNER)
          THE CONTACT CONSTRAINT ERRORS ARE WITHIN THE TOLERANCES.

 AVERAGE FORCE                       86.5       TIME AVG. FORCE        96.1    
 LARGEST RESIDUAL FORCE              25.4       AT NODE         25   DOF  1
   INSTANCE: PUMP-TUBE-1                                                                     
 LARGEST INCREMENT OF DISP.         2.129E-03   AT NODE          8   DOF  2
   INSTANCE: PISTON-1                                                                        
 LARGEST CORRECTION TO DISP.        4.406E-03   AT NODE         26   DOF  2
   INSTANCE: CAP-1                                                                           
          FORCE     EQUILIBRIUM NOT ACHIEVED WITHIN TOLERANCE.

  NUMBER OF EQUATIONS =    13596     NUMBER OF FLOATING PT. OPERATIONS =  3.32E+07

  USING THE DIRECT SOLVER WITH  12 PROCESSORS

     CHECK POINT   START OF SOLVER    

     CHECK POINT  END OF SOLVER       

       ELAPSED USER TIME (SEC)      =  0.41000    
       ELAPSED SYSTEM TIME (SEC)    =  0.15000    
       ELAPSED TOTAL CPU TIME (SEC) =  0.56000    
       ELAPSED WALLCLOCK TIME (SEC) =          0
  
     ASYNCHRONOUS TRACKING ELEMENT LOOP STARTED
  

               CONVERGENCE CHECKS FOR EQUILIBRIUM ITERATION     1

   MAX. PENETRATION ERROR -561.510E-12   AT NODE CAP-1.519 OF CONTACT PAIR 
   (ASSEMBLY_CAP-1_TRANSITION-AND-PUMP-CONTACT,ASSEMBLY_TRANSITION-PIECE-1_END-C
   ONTACT)
   MAX. CONTACT FORCE ERROR -217.817E-06   AT NODE PISTON-1.408 OF CONTACT PAIR 
   (ASSEMBLY_PISTON-1_PUMP-CONTACT,ASSEMBLY_TUBE-INNER)
          THE CONTACT CONSTRAINTS HAVE CONVERGED.

 AVERAGE FORCE                       86.5       TIME AVG. FORCE        96.1    
 LARGEST RESIDUAL FORCE            -2.579E-02   AT NODE        408   DOF  2
   INSTANCE: PISTON-1                                                                        
 LARGEST INCREMENT OF DISP.         2.090E-03   AT NODE          8   DOF  2
   INSTANCE: PISTON-1                                                                        
 LARGEST CORRECTION TO DISP.       -2.438E-04   AT NODE         27   DOF  2
   INSTANCE: CAP-1                                                                           
 ESTIMATE OF DISP.    CORRECTION   -1.950E-07
 FORCE     EQUILIB. ACCEPTED BASED ON SMALL RESIDUAL AND ESTIMATED CORRECTION
          TIME INCREMENT MAY NOW INCREASE TO    3.797E-05
          TIME INCREMENT REDUCED TO   3.000E-05 TO MEET NEXT OUTPUT TIME POINT

 ITERATION SUMMARY FOR THE INCREMENT:   2 TOTAL ITERATIONS, OF WHICH
   1 ARE SEVERE DISCONTINUITY ITERATIONS AND  1 ARE EQUILIBRIUM ITERATIONS.

 TIME INCREMENT COMPLETED  3.000E-05,  FRACTION OF STEP COMPLETED  0.980    
 STEP TIME COMPLETED       2.940E-03,  TOTAL TIME COMPLETED        2.940E-03
  
     ASYNCHRONOUS OUTPUT DATABASE FRAME FLUSH STARTED
  


  INCREMENT   157 STARTS. ATTEMPT NUMBER  1, TIME INCREMENT  3.000E-05
  
     ASYNCHRONOUS TRACKING ELEMENT LOOP STARTED
  

  NUMBER OF EQUATIONS =    13596     NUMBER OF FLOATING PT. OPERATIONS =  3.32E+07

  USING THE DIRECT SOLVER WITH  12 PROCESSORS

     CHECK POINT   START OF SOLVER    

     CHECK POINT  END OF SOLVER       

       ELAPSED USER TIME (SEC)      =  0.38000    
       ELAPSED SYSTEM TIME (SEC)    =  0.17000    
       ELAPSED TOTAL CPU TIME (SEC) =  0.55000    
       ELAPSED WALLCLOCK TIME (SEC) =          0
  
     ASYNCHRONOUS TRACKING ELEMENT LOOP STARTED
  

                    1 SEVERE DISCONTINUITIES OCCURRED DURING THIS ITERATION.
                    1 POINTS CHANGED FROM CLOSED TO OPEN

               CONVERGENCE CHECKS FOR SEVERE DISCONTINUITY ITERATION     1

   MAX. PENETRATION ERROR -393.489E-09   AT NODE CAP-1.519 OF CONTACT PAIR 
   (ASSEMBLY_CAP-1_TRANSITION-AND-PUMP-CONTACT,ASSEMBLY_TRANSITION-PIECE-1_END-C
   ONTACT)
   MAX. CONTACT FORCE ERROR -20.6939      AT NODE PISTON-1.408 OF CONTACT PAIR 
   (ASSEMBLY_PISTON-1_PUMP-CONTACT,ASSEMBLY_TUBE-INNER)
          THE CONTACT CONSTRAINT ERRORS ARE WITHIN THE TOLERANCES.

 AVERAGE FORCE                       44.7       TIME AVG. FORCE        95.8    
 LARGEST RESIDUAL FORCE             -13.8       AT NODE        408   DOF  1
   INSTANCE: PISTON-1                                                                        
 LARGEST INCREMENT OF DISP.         5.294E-03   AT NODE          5   DOF  2
   INSTANCE: CAP-1                                                                           
 LARGEST CORRECTION TO DISP.        4.313E-03   AT NODE          5   DOF  2
   INSTANCE: CAP-1                                                                           
          FORCE     EQUILIBRIUM NOT ACHIEVED WITHIN TOLERANCE.

  NUMBER OF EQUATIONS =    13596     NUMBER OF FLOATING PT. OPERATIONS =  3.32E+07

  USING THE DIRECT SOLVER WITH  12 PROCESSORS

     CHECK POINT   START OF SOLVER    

     CHECK POINT  END OF SOLVER       

       ELAPSED USER TIME (SEC)      =  0.37000    
       ELAPSED SYSTEM TIME (SEC)    =  0.17000    
       ELAPSED TOTAL CPU TIME (SEC) =  0.54000    
       ELAPSED WALLCLOCK TIME (SEC) =          0
  
     ASYNCHRONOUS TRACKING ELEMENT LOOP STARTED
  

               CONVERGENCE CHECKS FOR EQUILIBRIUM ITERATION     1

   MAX. PENETRATION ERROR -43.6759E-12  AT NODE CAP-1.519 OF CONTACT PAIR 
   (ASSEMBLY_CAP-1_TRANSITION-AND-PUMP-CONTACT,ASSEMBLY_TRANSITION-PIECE-1_END-C
   ONTACT)
   MAX. CONTACT FORCE ERROR 76.0026E-06  AT NODE PISTON-1.11 OF CONTACT PAIR 
   (ASSEMBLY_PISTON-1_PUMP-CONTACT,ASSEMBLY_TUBE-INNER)
          THE CONTACT CONSTRAINTS HAVE CONVERGED.

 AVERAGE FORCE                       44.7       TIME AVG. FORCE        95.8    
 LARGEST RESIDUAL FORCE             6.146E-03   AT NODE         11   DOF  2
   INSTANCE: PISTON-1                                                                        
 LARGEST INCREMENT OF DISP.         5.306E-03   AT NODE        241   DOF  2
   INSTANCE: CAP-1                                                                           
 LARGEST CORRECTION TO DISP.       -2.494E-05   AT NODE        519   DOF  2
   INSTANCE: CAP-1                                                                           
          THE FORCE     EQUILIBRIUM EQUATIONS HAVE CONVERGED
          TIME INCREMENT MAY NOW INCREASE TO    3.797E-05

 ITERATION SUMMARY FOR THE INCREMENT:   2 TOTAL ITERATIONS, OF WHICH
   1 ARE SEVERE DISCONTINUITY ITERATIONS AND  1 ARE EQUILIBRIUM ITERATIONS.

 TIME INCREMENT COMPLETED  3.000E-05,  FRACTION OF STEP COMPLETED  0.990    
 STEP TIME COMPLETED       2.970E-03,  TOTAL TIME COMPLETED        2.970E-03
  
     ASYNCHRONOUS OUTPUT DATABASE FRAME FLUSH STARTED
  


  INCREMENT   158 STARTS. ATTEMPT NUMBER  1, TIME INCREMENT  3.000E-05
  
     ASYNCHRONOUS TRACKING ELEMENT LOOP STARTED
  

                    2 SEVERE DISCONTINUITIES OCCURRED DURING INCREMENT ATTEMPT INITIALIZATION.
                    2 POINTS CHANGED TO SLIPPING WITH NEGATIVE CPRESS

  NUMBER OF EQUATIONS =    13596     NUMBER OF FLOATING PT. OPERATIONS =  3.32E+07

  USING THE DIRECT SOLVER WITH  12 PROCESSORS

     CHECK POINT   START OF SOLVER    

     CHECK POINT  END OF SOLVER       

       ELAPSED USER TIME (SEC)      =  0.37000    
       ELAPSED SYSTEM TIME (SEC)    =  0.17000    
       ELAPSED TOTAL CPU TIME (SEC) =  0.54000    
       ELAPSED WALLCLOCK TIME (SEC) =          0
  
     ASYNCHRONOUS TRACKING ELEMENT LOOP STARTED
  

                    3 SEVERE DISCONTINUITIES OCCURRED DURING THIS ITERATION.
                    2 POINTS CHANGED FROM CLOSED TO OPEN
                    1 POINTS CHANGED FROM SLIPPING TO STICKING

               CONVERGENCE CHECKS FOR SEVERE DISCONTINUITY ITERATION     1

   MAX. PENETRATION ERROR -58.1794E-09  AT NODE CAP-1.519 OF CONTACT PAIR 
   (ASSEMBLY_CAP-1_TRANSITION-AND-PUMP-CONTACT,ASSEMBLY_TRANSITION-PIECE-1_END-C
   ONTACT)
   MAX. CONTACT FORCE ERROR -16.8129      AT NODE PISTON-1.11 OF CONTACT PAIR 
   (ASSEMBLY_PISTON-1_PUMP-CONTACT,ASSEMBLY_TUBE-INNER)
          THE CONTACT CONSTRAINT ERRORS ARE WITHIN THE TOLERANCES.

 AVERAGE FORCE                       49.2       TIME AVG. FORCE        95.5    
 LARGEST RESIDUAL FORCE             -11.2       AT NODE         11   DOF  1
   INSTANCE: PISTON-1                                                                        
 LARGEST INCREMENT OF DISP.         7.269E-03   AT NODE         43   DOF  2
   INSTANCE: CAP-1                                                                           
 LARGEST CORRECTION TO DISP.        1.995E-03   AT NODE         45   DOF  2
   INSTANCE: CAP-1                                                                           
          FORCE     EQUILIBRIUM NOT ACHIEVED WITHIN TOLERANCE.

  NUMBER OF EQUATIONS =    13596     NUMBER OF FLOATING PT. OPERATIONS =  3.32E+07

  USING THE DIRECT SOLVER WITH  12 PROCESSORS

     CHECK POINT   START OF SOLVER    

     CHECK POINT  END OF SOLVER       

       ELAPSED USER TIME (SEC)      =  0.44000    
       ELAPSED SYSTEM TIME (SEC)    =  0.12000    
       ELAPSED TOTAL CPU TIME (SEC) =  0.56000    
       ELAPSED WALLCLOCK TIME (SEC) =          0
  
     ASYNCHRONOUS TRACKING ELEMENT LOOP STARTED
  

               CONVERGENCE CHECKS FOR EQUILIBRIUM ITERATION     1

   MAX. PENETRATION ERROR -731.252E-15   AT NODE CAP-1.519 OF CONTACT PAIR 
   (ASSEMBLY_CAP-1_TRANSITION-AND-PUMP-CONTACT,ASSEMBLY_TRANSITION-PIECE-1_END-C
   ONTACT)
   MAX. CONTACT FORCE ERROR -4.31309E-06 AT NODE PISTON-1.546 OF CONTACT PAIR 
   (ASSEMBLY_PISTON-1_PUMP-CONTACT,ASSEMBLY_TUBE-INNER)
          THE CONTACT CONSTRAINTS HAVE CONVERGED.

 AVERAGE FORCE                       49.2       TIME AVG. FORCE        95.5    
 LARGEST RESIDUAL FORCE            -5.582E-04   AT NODE        546   DOF  2
   INSTANCE: PISTON-1                                                                        
 LARGEST INCREMENT OF DISP.         7.265E-03   AT NODE         43   DOF  2
   INSTANCE: CAP-1                                                                           
 LARGEST CORRECTION TO DISP.       -1.134E-05   AT NODE        189   DOF  2
   INSTANCE: CAP-1                                                                           
          THE FORCE     EQUILIBRIUM EQUATIONS HAVE CONVERGED
          TIME INCREMENT MAY NOW INCREASE TO    3.797E-05

 ITERATION SUMMARY FOR THE INCREMENT:   2 TOTAL ITERATIONS, OF WHICH
   1 ARE SEVERE DISCONTINUITY ITERATIONS AND  1 ARE EQUILIBRIUM ITERATIONS.

 TIME INCREMENT COMPLETED  3.000E-05,  FRACTION OF STEP COMPLETED   1.00    
 STEP TIME COMPLETED       3.000E-03,  TOTAL TIME COMPLETED        3.000E-03


          THE ANALYSIS HAS BEEN COMPLETED



     ANALYSIS SUMMARY:
     TOTAL OF        158  INCREMENTS
                      16  CUTBACKS IN AUTOMATIC INCREMENTATION
                     606  ITERATIONS INCLUDING CONTACT ITERATIONS IF PRESENT
                     606  PASSES THROUGH THE EQUATION SOLVER OF WHICH 
                     606  INVOLVE MATRIX DECOMPOSITION, INCLUDING
                       0  DECOMPOSITION(S) OF THE MASS MATRIX
                       1  REORDERING OF EQUATIONS TO MINIMIZE WAVEFRONT
                       0  ADDITIONAL RESIDUAL EVALUATIONS FOR LINE SEARCHES
                       0  ADDITIONAL OPERATOR EVALUATIONS FOR LINE SEARCHES
                      33  WARNING MESSAGES DURING USER INPUT PROCESSING
                      55  WARNING MESSAGES DURING ANALYSIS
                       0  ANALYSIS WARNINGS ARE NUMERICAL PROBLEM MESSAGES
                      41  ANALYSIS WARNINGS ARE NEGATIVE EIGENVALUE MESSAGES
                       0  ERROR MESSAGES



     JOB TIME SUMMARY
       USER TIME (SEC)      =   412.03    
       SYSTEM TIME (SEC)    =   152.61    
       TOTAL CPU TIME (SEC) =   564.64    
       WALLCLOCK TIME (SEC) =        105
