1

   Abaqus 6.14-1                                  Date 23-Sep-2021   Time 13:05:04
   For use at UNIVERSITY OF CAPE TOWN under license from Dassault Systemes or its subsidiary.

                                                                                 
                                                                                 
 STEP    1     INCREMENT     1     STEP TIME    0.00    


                        S T E P       1     D Y N A M I C   A N A L Y S I S - I M P L I C I T  I N T E G R A T I O N


                                                                                          

          DYNAMIC APPLICATION PACKED SCHEME IS                 MODERATE DISSIPATION
          HILBER-HUGHES-TAYLOR (HHT) TIME INTEGRATOR IS USED

     AUTOMATIC TIME CONTROL WITH -
          A SUGGESTED INITIAL TIME INCREMENT OF                1.000E-08
          AND A TOTAL TIME PERIOD OF                            1.00    
          THE MINIMUM TIME INCREMENT ALLOWED IS                1.000E-10
          THE MAXIMUM TIME INCREMENT ALLOWED IS                0.100    

          THE HALF-INCREMENT RESIDUALS WILL NOT BE CALCULATED

          HILBER-HUGHES-TAYLOR METHOD PARAMETERS:  ALPHA   IS  -0.414214    
                                                   BETA    IS   0.500000    
                                                   GAMMA   IS   0.914214    
          CONTACT IMPACT/RELEASE COMPUTATIONS ARE SKIPPED
          AGGRESSIVE   TIME INCREMENTATION IS USED
          STEP AMPLITUDE IS                                    STEP

 CONVERGENCE TOLERANCE PARAMETERS FOR FORCE    
     CRITERION FOR RESIDUAL FORCE     FOR A NONLINEAR PROBLEM          5.000E-03
     CRITERION FOR DISP.    CORRECTION IN A NONLINEAR PROBLEM          1.000E-02
     INITIAL VALUE OF TIME AVERAGE FORCE                               1.000E-02
     AVERAGE FORCE     IS TIME AVERAGE FORCE    
     ALTERNATE CRIT. FOR RESIDUAL FORCE     FOR A NONLINEAR PROBLEM    2.000E-02
     CRITERION FOR ZERO FORCE     RELATIVE TO TIME AVRG. FORCE         1.000E-05
     CRITERION FOR RESIDUAL FORCE     WHEN THERE IS ZERO FLUX          1.000E-05
     CRITERION FOR DISP.    CORRECTION WHEN THERE IS ZERO FLUX         1.000E-03
     CRITERION FOR RESIDUAL FORCE     FOR A LINEAR INCREMENT           1.000E-08
     FIELD CONVERSION RATIO                                             1.00    
     CRITERION FOR ZERO FORCE     REL. TO TIME AVRG. MAX. FORCE        1.000E-05
     CRITERION FOR ZERO DISP.    RELATIVE TO CHARACTERISTIC LENGTH     1.000E-08

     VOLUMETRIC STRAIN COMPATIBILITY TOLERANCE FOR HYBRID SOLIDS       1.000E-05
     AXIAL STRAIN COMPATIBILITY TOLERANCE FOR HYBRID BEAMS             1.000E-05
     TRANS. SHEAR STRAIN COMPATIBILITY TOLERANCE FOR HYBRID BEAMS      1.000E-05
     SOFT CONTACT CONSTRAINT COMPATIBILITY TOLERANCE FOR P>P0          5.000E-03
     SOFT CONTACT CONSTRAINT COMPATIBILITY TOLERANCE FOR P=0.0         0.100    
     CONTACT FORCE ERROR TOLERANCE FOR CONVERT SDI=YES                 1.00    
     DISPLACEMENT COMPATIBILITY TOLERANCE FOR DCOUP ELEMENTS           1.000E-05
     ROTATION COMPATIBILITY TOLERANCE FOR DCOUP ELEMENTS               1.000E-05

 EQUILIBRIUM WILL BE CHECKED FOR SEVERE DISCONTINUITY ITERATIONS

 TIME INCREMENTATION CONTROL PARAMETERS:
     FIRST EQUILIBRIUM ITERATION FOR CONSECUTIVE DIVERGENCE CHECK              4
     EQUILIBRIUM ITERATION AT WHICH LOG. CONVERGENCE RATE CHECK BEGINS         8
     EQUILIBRIUM ITERATION AFTER WHICH ALTERNATE RESIDUAL IS USED              9
     MAXIMUM EQUILIBRIUM ITERATIONS ALLOWED                                   16
     EQUILIBRIUM ITERATION COUNT FOR CUT-BACK IN NEXT INCREMENT               10
     MAXIMUM EQUILIB. ITERS IN TWO INCREMENTS FOR TIME INCREMENT INCREASE      4
     MAXIMUM ITERATIONS FOR SEVERE DISCONTINUITIES                            50
     MAXIMUM CUT-BACKS ALLOWED IN AN INCREMENT                                 5
     MAXIMUM DISCON. ITERS IN TWO INCREMENTS FOR TIME INCREMENT INCREASE      50
     MAXIMUM CONTACT AUGMENTATIONS FOR *SURFACE BEHAVIOR,AUGMENTED LAGRANGE   50
     CUT-BACK FACTOR AFTER DIVERGENCE                                 0.2500    
     CUT-BACK FACTOR FOR TOO SLOW CONVERGENCE                         0.5000    
     CUT-BACK FACTOR AFTER TOO MANY EQUILIBRIUM ITERATIONS            0.7500    
     CUT-BACK FACTOR AFTER TOO MANY SEVERE DISCONTINUITY ITERATIONS   0.2500    
     CUT-BACK FACTOR AFTER PROBLEMS IN ELEMENT ASSEMBLY               0.2500    
     INCREASE FACTOR AFTER TWO INCREMENTS THAT CONVERGE QUICKLY        1.500    
     MAX. TIME INCREMENT INCREASE FACTOR ALLOWED                       1.500    
     MAX. TIME INCREMENT INCREASE FACTOR ALLOWED (DYNAMICS)            1.250    
     MAX. TIME INCREMENT INCREASE FACTOR ALLOWED (DIFFUSION)           2.000    
     MINIMUM TIME INCREMENT RATIO FOR EXTRAPOLATION TO OCCUR          0.1000    
     MAX. RATIO OF TIME INCREMENT TO STABILITY LIMIT                   1.000    
     FRACTION OF STABILITY LIMIT FOR NEW TIME INCREMENT               0.9500    
     TIME INCREMENT INCREASE FACTOR BEFORE A TIME POINT                1.000    

 CONTACT CONTROLS APPLIED TO ALL CONTACT PAIRS:
     GLOBAL STABILIZATION CONTROL IS NOT USED
     RELATIVE PENETRATION TOLERANCE FOR AUGMENTED LAGRANGE CONTACT:
          FINITE-SLIDING SURFACE-TO-SURFACE                            5.000E-02
          OTHERWISE                                                    1.000E-03

          PRINT OF INCREMENT NUMBER, TIME, ETC., EVERY    1  INCREMENTS

     THE MAXIMUM NUMBER OF INCREMENTS IN THIS STEP IS                 *******

          LARGE DISPLACEMENT THEORY WILL BE USED

     LINEAR EXTRAPOLATION WILL BE USED

     CHARACTERISTIC ELEMENT LENGTH      1.00    

     DETAILS REGARDING ACTUAL SOLUTION WAVEFRONT REQUESTED

     DETAILED OUTPUT OF DIAGNOSTICS TO DATABASE REQUESTED

     PRINT OF INCREMENT NUMBER, TIME, ETC., TO THE MESSAGE FILE EVERY     1  INCREMENTS

     ELEMENT OPERATIONS WILL BE CARRIED OUT IN PARALLEL USING  14 PROCESSORS

     PARALLEL CONTACT TRACKING ENABLED


     COLLECTING MODEL CONSTRAINT INFORMATION FOR OVERCONSTRAINT CHECKS

     COLLECTING STEP CONSTRAINT INFORMATION FOR OVERCONSTRAINT CHECKS
  
     ASYNCHRONOUS TRACKING ELEMENT LOOP STARTED
  
  
     ASYNCHRONOUS OUTPUT DATABASE FRAME FLUSH STARTED
  


  INCREMENT     1 STARTS. ATTEMPT NUMBER  1, TIME INCREMENT  1.000E-08
  
     ASYNCHRONOUS TRACKING ELEMENT LOOP STARTED
  
 
     INITIAL ELEMENT LOAD BALANCE
        COMPUTE NODE   1   PROCESS    NUMBER OF ELEMENTS
                              1            234
                              2            234
                              3            234
                              4            234
                              5            234
                              6            234
                              7            234
                              8            234
                              9            234
                             10            234
                             11            234
                             12            234
                             13            234
                             14            234

                    2 SEVERE DISCONTINUITIES OCCURRED DURING INCREMENT ATTEMPT INITIALIZATION.
                    2 POINTS CHANGED FROM STICKING TO SLIPPING

  NUMBER OF EQUATIONS =    19308     NUMBER OF FLOATING PT. OPERATIONS =  4.44E+07

  USING THE DIRECT SOLVER WITH  14 PROCESSORS

     CHECK POINT   START OF SOLVER    

     CHECK POINT  END OF SOLVER       

       ELAPSED USER TIME (SEC)      =  0.50000    
       ELAPSED SYSTEM TIME (SEC)    =  0.23000    
       ELAPSED TOTAL CPU TIME (SEC) =  0.73000    
       ELAPSED WALLCLOCK TIME (SEC) =          0
  
     ASYNCHRONOUS TRACKING ELEMENT LOOP STARTED
  

                   19 SEVERE DISCONTINUITIES OCCURRED DURING THIS ITERATION.
                   19 POINTS CHANGED FROM CLOSED TO OPEN

               CONVERGENCE CHECKS FOR SEVERE DISCONTINUITY ITERATION     1

   MAX. PENETRATION ERROR 37.3119E-09  AT NODE PISTON-1.441 OF CONTACT PAIR 
   (ASSEMBLY_OUTER-PISTON,ASSEMBLY_INNER-TUBE)
   MAX. CONTACT FORCE ERROR -234.927       AT NODE PISTON-1.1679 OF CONTACT 
   PAIR (ASSEMBLY_OUTER-PISTON,ASSEMBLY_INNER-TUBE)
          THE ESTIMATED CONTACT FORCE ERROR IS OUTSIDE OF CONVERGENCE TOLERANCES.

 AVERAGE FORCE                      0.398       TIME AVG. FORCE       0.398    
 LARGEST RESIDUAL FORCE              293.       AT NODE         10   DOF  2
   INSTANCE: TUBE-1                                                                          
 LARGEST INCREMENT OF DISP.         3.000E-02   AT NODE       1681   DOF  2
   INSTANCE: PISTON-1                                                                        
 LARGEST CORRECTION TO DISP.       -1.187E-04   AT NODE        441   DOF  1
   INSTANCE: PISTON-1                                                                        
          FORCE     EQUILIBRIUM NOT ACHIEVED WITHIN TOLERANCE.

  NUMBER OF EQUATIONS =    19308     NUMBER OF FLOATING PT. OPERATIONS =  4.40E+07

  USING THE DIRECT SOLVER WITH  14 PROCESSORS

     CHECK POINT   START OF SOLVER    

     CHECK POINT  END OF SOLVER       

       ELAPSED USER TIME (SEC)      =  0.54000    
       ELAPSED SYSTEM TIME (SEC)    =  0.19000    
       ELAPSED TOTAL CPU TIME (SEC) =  0.73000    
       ELAPSED WALLCLOCK TIME (SEC) =          0
  
     ASYNCHRONOUS TRACKING ELEMENT LOOP STARTED
  

                    6 SEVERE DISCONTINUITIES OCCURRED DURING THIS ITERATION.
                    6 POINTS CHANGED FROM CLOSED TO OPEN

               CONVERGENCE CHECKS FOR SEVERE DISCONTINUITY ITERATION     2

   MAX. PENETRATION ERROR -603.564E-09   AT NODE PISTON-1.441 OF CONTACT PAIR 
   (ASSEMBLY_OUTER-PISTON,ASSEMBLY_INNER-TUBE)
   MAX. CONTACT FORCE ERROR -725.397E-03   AT NODE PISTON-1.441 OF CONTACT PAIR 
   (ASSEMBLY_OUTER-PISTON,ASSEMBLY_INNER-TUBE)
          THE ESTIMATED CONTACT FORCE ERROR IS OUTSIDE OF CONVERGENCE TOLERANCES.

 AVERAGE FORCE                      0.407       TIME AVG. FORCE       0.407    
 LARGEST RESIDUAL FORCE            -0.761       AT NODE         10   DOF  2
   INSTANCE: TUBE-1                                                                          
 LARGEST INCREMENT OF DISP.         3.000E-02   AT NODE       1681   DOF  2
   INSTANCE: PISTON-1                                                                        
 LARGEST CORRECTION TO DISP.       -5.989E-06   AT NODE        441   DOF  2
   INSTANCE: PISTON-1                                                                        
          FORCE     EQUILIBRIUM NOT ACHIEVED WITHIN TOLERANCE.

  NUMBER OF EQUATIONS =    19308     NUMBER OF FLOATING PT. OPERATIONS =  4.35E+07

  USING THE DIRECT SOLVER WITH  14 PROCESSORS

     CHECK POINT   START OF SOLVER    

     CHECK POINT  END OF SOLVER       

       ELAPSED USER TIME (SEC)      =  0.58000    
       ELAPSED SYSTEM TIME (SEC)    =  0.18000    
       ELAPSED TOTAL CPU TIME (SEC) =  0.76000    
       ELAPSED WALLCLOCK TIME (SEC) =          0
  
     ASYNCHRONOUS TRACKING ELEMENT LOOP STARTED
  

                    5 SEVERE DISCONTINUITIES OCCURRED DURING THIS ITERATION.
                    2 POINTS CHANGED FROM OPEN TO CLOSED
                    1 POINTS CHANGED FROM CLOSED TO OPEN
                    2 POINTS CHANGED FROM STICKING TO SLIPPING

               CONVERGENCE CHECKS FOR SEVERE DISCONTINUITY ITERATION     3

   MAX. PENETRATION ERROR 1.56878E-09 AT NODE PISTON-1.441 OF CONTACT PAIR 
   (ASSEMBLY_OUTER-PISTON,ASSEMBLY_INNER-TUBE)
   MAX. CONTACT FORCE ERROR 1.88545E-03 AT NODE PISTON-1.441 OF CONTACT PAIR 
   (ASSEMBLY_OUTER-PISTON,ASSEMBLY_INNER-TUBE)
          THE CONTACT CONSTRAINT ERRORS ARE WITHIN THE TOLERANCES.

 AVERAGE FORCE                      0.406       TIME AVG. FORCE       0.406    
 LARGEST RESIDUAL FORCE            -0.270       AT NODE         10   DOF  2
   INSTANCE: TUBE-1                                                                          
 LARGEST INCREMENT OF DISP.         3.000E-02   AT NODE       1681   DOF  2
   INSTANCE: PISTON-1                                                                        
 LARGEST CORRECTION TO DISP.        1.175E-07   AT NODE        441   DOF  1
   INSTANCE: PISTON-1                                                                        
          FORCE     EQUILIBRIUM NOT ACHIEVED WITHIN TOLERANCE.

  NUMBER OF EQUATIONS =    19308     NUMBER OF FLOATING PT. OPERATIONS =  4.34E+07

  USING THE DIRECT SOLVER WITH  14 PROCESSORS

     CHECK POINT   START OF SOLVER    

     CHECK POINT  END OF SOLVER       

       ELAPSED USER TIME (SEC)      =  0.60000    
       ELAPSED SYSTEM TIME (SEC)    =  0.13000    
       ELAPSED TOTAL CPU TIME (SEC) =  0.73000    
       ELAPSED WALLCLOCK TIME (SEC) =          0
  
     ASYNCHRONOUS TRACKING ELEMENT LOOP STARTED
  

                    3 SEVERE DISCONTINUITIES OCCURRED DURING THIS ITERATION.
                    3 POINTS CHANGED FROM CLOSED TO OPEN

               CONVERGENCE CHECKS FOR SEVERE DISCONTINUITY ITERATION     4

   MAX. PENETRATION ERROR 564.939E-12   AT NODE PISTON-1.441 OF CONTACT PAIR 
   (ASSEMBLY_OUTER-PISTON,ASSEMBLY_INNER-TUBE)
   MAX. CONTACT FORCE ERROR 678.975E-06   AT NODE PISTON-1.441 OF CONTACT PAIR 
   (ASSEMBLY_OUTER-PISTON,ASSEMBLY_INNER-TUBE)
          THE CONTACT CONSTRAINT ERRORS ARE WITHIN THE TOLERANCES.

 AVERAGE FORCE                      0.406       TIME AVG. FORCE       0.406    
 LARGEST RESIDUAL FORCE             6.958E-04   AT NODE         10   DOF  2
   INSTANCE: TUBE-1                                                                          
 LARGEST INCREMENT OF DISP.         3.000E-02   AT NODE       1681   DOF  2
   INSTANCE: PISTON-1                                                                        
 LARGEST CORRECTION TO DISP.        5.586E-09   AT NODE        441   DOF  2
   INSTANCE: PISTON-1                                                                        
          THE FORCE     EQUILIBRIUM EQUATIONS HAVE CONVERGED

 ITERATION SUMMARY FOR THE INCREMENT:   4 TOTAL ITERATIONS, OF WHICH
   4 ARE SEVERE DISCONTINUITY ITERATIONS AND  0 ARE EQUILIBRIUM ITERATIONS.

 TIME INCREMENT COMPLETED  1.000E-08,  FRACTION OF STEP COMPLETED  1.000E-08
 STEP TIME COMPLETED       1.000E-08,  TOTAL TIME COMPLETED        1.000E-08
  
     ASYNCHRONOUS OUTPUT DATABASE FRAME FLUSH STARTED
  


  INCREMENT     2 STARTS. ATTEMPT NUMBER  1, TIME INCREMENT  1.000E-08
  
     ASYNCHRONOUS TRACKING ELEMENT LOOP STARTED
  

  NUMBER OF EQUATIONS =    19308     NUMBER OF FLOATING PT. OPERATIONS =  4.33E+07

  USING THE DIRECT SOLVER WITH  14 PROCESSORS

     CHECK POINT   START OF SOLVER    

     CHECK POINT  END OF SOLVER       

       ELAPSED USER TIME (SEC)      =  0.55000    
       ELAPSED SYSTEM TIME (SEC)    =  0.18000    
       ELAPSED TOTAL CPU TIME (SEC) =  0.73000    
       ELAPSED WALLCLOCK TIME (SEC) =          1
  
     ASYNCHRONOUS TRACKING ELEMENT LOOP STARTED
  

               CONVERGENCE CHECKS FOR EQUILIBRIUM ITERATION     1

   MAX. PENETRATION ERROR -2.94280E-06 AT NODE PISTON-1.441 OF CONTACT PAIR 
   (ASSEMBLY_OUTER-PISTON,ASSEMBLY_INNER-TUBE)
   MAX. CONTACT FORCE ERROR -3.18392     AT NODE PISTON-1.441 OF CONTACT PAIR 
   (ASSEMBLY_OUTER-PISTON,ASSEMBLY_INNER-TUBE)
          THE ESTIMATED CONTACT FORCE ERROR IS OUTSIDE OF CONVERGENCE TOLERANCES.

 AVERAGE FORCE                       454.       TIME AVG. FORCE        227.    
 LARGEST RESIDUAL FORCE             1.138E+03   AT NODE         10   DOF  2
   INSTANCE: TUBE-1                                                                          
 LARGEST INCREMENT OF DISP.         3.002E-02   AT NODE       1681   DOF  2
   INSTANCE: PISTON-1                                                                        
 LARGEST CORRECTION TO DISP.       -7.730E-04   AT NODE        441   DOF  1
   INSTANCE: PISTON-1                                                                        
          FORCE     EQUILIBRIUM NOT ACHIEVED WITHIN TOLERANCE.

  NUMBER OF EQUATIONS =    19308     NUMBER OF FLOATING PT. OPERATIONS =  4.33E+07

  USING THE DIRECT SOLVER WITH  14 PROCESSORS

     CHECK POINT   START OF SOLVER    

     CHECK POINT  END OF SOLVER       

       ELAPSED USER TIME (SEC)      =  0.57000    
       ELAPSED SYSTEM TIME (SEC)    =  0.14000    
       ELAPSED TOTAL CPU TIME (SEC) =  0.71000    
       ELAPSED WALLCLOCK TIME (SEC) =          0
  
     ASYNCHRONOUS TRACKING ELEMENT LOOP STARTED
  

               CONVERGENCE CHECKS FOR EQUILIBRIUM ITERATION     2

   MAX. PENETRATION ERROR -2.07097E-06 AT NODE PISTON-1.441 OF CONTACT PAIR 
   (ASSEMBLY_OUTER-PISTON,ASSEMBLY_INNER-TUBE)
   MAX. CONTACT FORCE ERROR -2.24055     AT NODE PISTON-1.441 OF CONTACT PAIR 
   (ASSEMBLY_OUTER-PISTON,ASSEMBLY_INNER-TUBE)
          THE ESTIMATED CONTACT FORCE ERROR IS OUTSIDE OF CONVERGENCE TOLERANCES.

 AVERAGE FORCE                       456.       TIME AVG. FORCE        228.    
 LARGEST RESIDUAL FORCE              6.33       AT NODE        441   DOF  1
   INSTANCE: PISTON-1                                                                        
 LARGEST INCREMENT OF DISP.         3.002E-02   AT NODE       1681   DOF  2
   INSTANCE: PISTON-1                                                                        
 LARGEST CORRECTION TO DISP.       -2.331E-05   AT NODE        441   DOF  2
   INSTANCE: PISTON-1                                                                        
          FORCE     EQUILIBRIUM NOT ACHIEVED WITHIN TOLERANCE.

  NUMBER OF EQUATIONS =    19308     NUMBER OF FLOATING PT. OPERATIONS =  4.33E+07

  USING THE DIRECT SOLVER WITH  14 PROCESSORS

     CHECK POINT   START OF SOLVER    

     CHECK POINT  END OF SOLVER       

       ELAPSED USER TIME (SEC)      =  0.58000    
       ELAPSED SYSTEM TIME (SEC)    =  0.14000    
       ELAPSED TOTAL CPU TIME (SEC) =  0.72000    
       ELAPSED WALLCLOCK TIME (SEC) =          0
  
     ASYNCHRONOUS TRACKING ELEMENT LOOP STARTED
  

               CONVERGENCE CHECKS FOR EQUILIBRIUM ITERATION     3

   MAX. PENETRATION ERROR 5.13285E-09 AT NODE PISTON-1.441 OF CONTACT PAIR 
   (ASSEMBLY_OUTER-PISTON,ASSEMBLY_INNER-TUBE)
   MAX. CONTACT FORCE ERROR 5.55314E-03 AT NODE PISTON-1.441 OF CONTACT PAIR 
   (ASSEMBLY_OUTER-PISTON,ASSEMBLY_INNER-TUBE)
          THE CONTACT CONSTRAINTS HAVE CONVERGED.

 AVERAGE FORCE                       455.       TIME AVG. FORCE        228.    
 LARGEST RESIDUAL FORCE            -0.825       AT NODE         10   DOF  2
   INSTANCE: TUBE-1                                                                          
 LARGEST INCREMENT OF DISP.         3.002E-02   AT NODE       1681   DOF  2
   INSTANCE: PISTON-1                                                                        
 LARGEST CORRECTION TO DISP.        4.846E-07   AT NODE        441   DOF  1
   INSTANCE: PISTON-1                                                                        
          THE FORCE     EQUILIBRIUM EQUATIONS HAVE CONVERGED
          TIME INCREMENT MAY NOW INCREASE TO    1.500E-08

 ITERATION SUMMARY FOR THE INCREMENT:   3 TOTAL ITERATIONS, OF WHICH
   0 ARE SEVERE DISCONTINUITY ITERATIONS AND  3 ARE EQUILIBRIUM ITERATIONS.

 TIME INCREMENT COMPLETED  1.000E-08,  FRACTION OF STEP COMPLETED  2.000E-08
 STEP TIME COMPLETED       2.000E-08,  TOTAL TIME COMPLETED        2.000E-08
  
     ASYNCHRONOUS OUTPUT DATABASE FRAME FLUSH STARTED
  


  INCREMENT     3 STARTS. ATTEMPT NUMBER  1, TIME INCREMENT  1.500E-08
  
     ASYNCHRONOUS TRACKING ELEMENT LOOP STARTED
  

  NUMBER OF EQUATIONS =    19308     NUMBER OF FLOATING PT. OPERATIONS =  4.33E+07

  USING THE DIRECT SOLVER WITH  14 PROCESSORS

     CHECK POINT   START OF SOLVER    

     CHECK POINT  END OF SOLVER       

       ELAPSED USER TIME (SEC)      =  0.55000    
       ELAPSED SYSTEM TIME (SEC)    =  0.18000    
       ELAPSED TOTAL CPU TIME (SEC) =  0.73000    
       ELAPSED WALLCLOCK TIME (SEC) =          0
  
     ASYNCHRONOUS TRACKING ELEMENT LOOP STARTED
  

                    4 SEVERE DISCONTINUITIES OCCURRED DURING THIS ITERATION.
                    2 POINTS CHANGED FROM OPEN TO CLOSED
                    2 POINTS CHANGED FROM STICKING TO SLIPPING

               CONVERGENCE CHECKS FOR SEVERE DISCONTINUITY ITERATION     1

   MAX. PENETRATION ERROR -46.5647E-06  AT NODE PISTON-1.441 OF CONTACT PAIR 
   (ASSEMBLY_OUTER-PISTON,ASSEMBLY_INNER-TUBE)
   MAX. CONTACT FORCE ERROR -46.2763      AT NODE PISTON-1.441 OF CONTACT PAIR 
   (ASSEMBLY_OUTER-PISTON,ASSEMBLY_INNER-TUBE)
          THE CONTACT CONSTRAINT ERRORS ARE WITHIN THE TOLERANCES.

 AVERAGE FORCE                       853.       TIME AVG. FORCE        436.    
 LARGEST RESIDUAL FORCE             -456.       AT NODE         10   DOF  2
   INSTANCE: TUBE-1                                                                          
 LARGEST INCREMENT OF DISP.         4.528E-02   AT NODE       1681   DOF  2
   INSTANCE: PISTON-1                                                                        
 LARGEST CORRECTION TO DISP.       -3.637E-03   AT NODE        441   DOF  1
   INSTANCE: PISTON-1                                                                        
          FORCE     EQUILIBRIUM NOT ACHIEVED WITHIN TOLERANCE.

  NUMBER OF EQUATIONS =    19308     NUMBER OF FLOATING PT. OPERATIONS =  4.35E+07

  USING THE DIRECT SOLVER WITH  14 PROCESSORS

     CHECK POINT   START OF SOLVER    

     CHECK POINT  END OF SOLVER       

       ELAPSED USER TIME (SEC)      =  0.55000    
       ELAPSED SYSTEM TIME (SEC)    =  0.22000    
       ELAPSED TOTAL CPU TIME (SEC) =  0.77000    
       ELAPSED WALLCLOCK TIME (SEC) =          0
  
     ASYNCHRONOUS TRACKING ELEMENT LOOP STARTED
  

                    1 SEVERE DISCONTINUITIES OCCURRED DURING THIS ITERATION.
                    1 POINTS CHANGED FROM CLOSED TO OPEN

               CONVERGENCE CHECKS FOR SEVERE DISCONTINUITY ITERATION     2

   MAX. PENETRATION ERROR 4.42446E-06 AT NODE PISTON-1.441 OF CONTACT PAIR 
   (ASSEMBLY_OUTER-PISTON,ASSEMBLY_INNER-TUBE)
   MAX. CONTACT FORCE ERROR 4.39721     AT NODE PISTON-1.441 OF CONTACT PAIR 
   (ASSEMBLY_OUTER-PISTON,ASSEMBLY_INNER-TUBE)
          THE CONTACT CONSTRAINT ERRORS ARE WITHIN THE TOLERANCES.

 AVERAGE FORCE                       851.       TIME AVG. FORCE        436.    
 LARGEST RESIDUAL FORCE             -13.7       AT NODE         10   DOF  2
   INSTANCE: TUBE-1                                                                          
 LARGEST INCREMENT OF DISP.         4.528E-02   AT NODE       1681   DOF  2
   INSTANCE: PISTON-1                                                                        
 LARGEST CORRECTION TO DISP.        2.229E-05   AT NODE        441   DOF  2
   INSTANCE: PISTON-1                                                                        
          FORCE     EQUILIBRIUM NOT ACHIEVED WITHIN TOLERANCE.

  NUMBER OF EQUATIONS =    19308     NUMBER OF FLOATING PT. OPERATIONS =  4.35E+07

  USING THE DIRECT SOLVER WITH  14 PROCESSORS

     CHECK POINT   START OF SOLVER    

     CHECK POINT  END OF SOLVER       

       ELAPSED USER TIME (SEC)      =  0.54000    
       ELAPSED SYSTEM TIME (SEC)    =  0.19000    
       ELAPSED TOTAL CPU TIME (SEC) =  0.73000    
       ELAPSED WALLCLOCK TIME (SEC) =          1
  
     ASYNCHRONOUS TRACKING ELEMENT LOOP STARTED
  

               CONVERGENCE CHECKS FOR EQUILIBRIUM ITERATION     1

   MAX. PENETRATION ERROR 97.3858E-09  AT NODE PISTON-1.441 OF CONTACT PAIR 
   (ASSEMBLY_OUTER-PISTON,ASSEMBLY_INNER-TUBE)
   MAX. CONTACT FORCE ERROR 96.7863E-03  AT NODE PISTON-1.441 OF CONTACT PAIR 
   (ASSEMBLY_OUTER-PISTON,ASSEMBLY_INNER-TUBE)
          THE CONTACT CONSTRAINTS HAVE CONVERGED.

 AVERAGE FORCE                       851.       TIME AVG. FORCE        436.    
 LARGEST RESIDUAL FORCE              1.30       AT NODE         10   DOF  2
   INSTANCE: TUBE-1                                                                          
 LARGEST INCREMENT OF DISP.         4.528E-02   AT NODE       1681   DOF  2
   INSTANCE: PISTON-1                                                                        
 LARGEST CORRECTION TO DISP.       -1.786E-06   AT NODE        441   DOF  1
   INSTANCE: PISTON-1                                                                        
          THE FORCE     EQUILIBRIUM EQUATIONS HAVE CONVERGED
          TIME INCREMENT MAY NOW INCREASE TO    2.250E-08

 ITERATION SUMMARY FOR THE INCREMENT:   3 TOTAL ITERATIONS, OF WHICH
   2 ARE SEVERE DISCONTINUITY ITERATIONS AND  1 ARE EQUILIBRIUM ITERATIONS.

 TIME INCREMENT COMPLETED  1.500E-08,  FRACTION OF STEP COMPLETED  3.500E-08
 STEP TIME COMPLETED       3.500E-08,  TOTAL TIME COMPLETED        3.500E-08
  
     ASYNCHRONOUS OUTPUT DATABASE FRAME FLUSH STARTED
  


  INCREMENT     4 STARTS. ATTEMPT NUMBER  1, TIME INCREMENT  2.250E-08
  
     ASYNCHRONOUS TRACKING ELEMENT LOOP STARTED
  

  NUMBER OF EQUATIONS =    19308     NUMBER OF FLOATING PT. OPERATIONS =  4.36E+07

  USING THE DIRECT SOLVER WITH  14 PROCESSORS

     CHECK POINT   START OF SOLVER    

     CHECK POINT  END OF SOLVER       

       ELAPSED USER TIME (SEC)      =  0.53000    
       ELAPSED SYSTEM TIME (SEC)    =  0.19000    
       ELAPSED TOTAL CPU TIME (SEC) =  0.72000    
       ELAPSED WALLCLOCK TIME (SEC) =          0
  
     ASYNCHRONOUS TRACKING ELEMENT LOOP STARTED
  

                    4 SEVERE DISCONTINUITIES OCCURRED DURING THIS ITERATION.
                    1 POINTS CHANGED FROM OPEN TO CLOSED
                    2 POINTS CHANGED FROM CLOSED TO OPEN
                    1 POINTS CHANGED FROM STICKING TO SLIPPING

               CONVERGENCE CHECKS FOR SEVERE DISCONTINUITY ITERATION     1

   MAX. PENETRATION ERROR -110.139E-06   AT NODE PISTON-1.441 OF CONTACT PAIR 
   (ASSEMBLY_OUTER-PISTON,ASSEMBLY_INNER-TUBE)
   MAX. CONTACT FORCE ERROR -96.3078      AT NODE PISTON-1.441 OF CONTACT PAIR 
   (ASSEMBLY_OUTER-PISTON,ASSEMBLY_INNER-TUBE)
          THE CONTACT CONSTRAINT ERRORS ARE WITHIN THE TOLERANCES.

 AVERAGE FORCE                      1.176E+03   TIME AVG. FORCE        621.    
 LARGEST RESIDUAL FORCE            -1.253E+03   AT NODE       1680   DOF  2
   INSTANCE: PISTON-1                                                                        
 LARGEST INCREMENT OF DISP.         6.954E-02   AT NODE       1681   DOF  2
   INSTANCE: PISTON-1                                                                        
 LARGEST CORRECTION TO DISP.       -1.070E-02   AT NODE        441   DOF  1
   INSTANCE: PISTON-1                                                                        
          FORCE     EQUILIBRIUM NOT ACHIEVED WITHIN TOLERANCE.

  NUMBER OF EQUATIONS =    19308     NUMBER OF FLOATING PT. OPERATIONS =  4.34E+07

  USING THE DIRECT SOLVER WITH  14 PROCESSORS

     CHECK POINT   START OF SOLVER    

     CHECK POINT  END OF SOLVER       

       ELAPSED USER TIME (SEC)      =  0.52000    
       ELAPSED SYSTEM TIME (SEC)    =  0.19000    
       ELAPSED TOTAL CPU TIME (SEC) =  0.71000    
       ELAPSED WALLCLOCK TIME (SEC) =          0
  
     ASYNCHRONOUS TRACKING ELEMENT LOOP STARTED
  

               CONVERGENCE CHECKS FOR EQUILIBRIUM ITERATION     1

   MAX. PENETRATION ERROR 36.8454E-06  AT NODE PISTON-1.441 OF CONTACT PAIR 
   (ASSEMBLY_OUTER-PISTON,ASSEMBLY_INNER-TUBE)
   MAX. CONTACT FORCE ERROR 32.2211      AT NODE PISTON-1.441 OF CONTACT PAIR 
   (ASSEMBLY_OUTER-PISTON,ASSEMBLY_INNER-TUBE)
          THE CONTACT CONSTRAINTS HAVE CONVERGED.

 AVERAGE FORCE                      1.173E+03   TIME AVG. FORCE        620.    
 LARGEST RESIDUAL FORCE              99.0       AT NODE       2676   DOF  1
   INSTANCE: TUBE-1                                                                          
 LARGEST INCREMENT OF DISP.         6.967E-02   AT NODE       1681   DOF  2
   INSTANCE: PISTON-1                                                                        
 LARGEST CORRECTION TO DISP.        1.411E-04   AT NODE        441   DOF  2
   INSTANCE: PISTON-1                                                                        
          FORCE     EQUILIBRIUM NOT ACHIEVED WITHIN TOLERANCE.

  NUMBER OF EQUATIONS =    19308     NUMBER OF FLOATING PT. OPERATIONS =  4.34E+07

  USING THE DIRECT SOLVER WITH  14 PROCESSORS

     CHECK POINT   START OF SOLVER    

     CHECK POINT  END OF SOLVER       

       ELAPSED USER TIME (SEC)      =  0.51000    
       ELAPSED SYSTEM TIME (SEC)    =  0.24000    
       ELAPSED TOTAL CPU TIME (SEC) =  0.75000    
       ELAPSED WALLCLOCK TIME (SEC) =          0
  
     ASYNCHRONOUS TRACKING ELEMENT LOOP STARTED
  

               CONVERGENCE CHECKS FOR EQUILIBRIUM ITERATION     2

   MAX. PENETRATION ERROR 231.182E-09   AT NODE PISTON-1.441 OF CONTACT PAIR 
   (ASSEMBLY_OUTER-PISTON,ASSEMBLY_INNER-TUBE)
   MAX. CONTACT FORCE ERROR 202.168E-03   AT NODE PISTON-1.441 OF CONTACT PAIR 
   (ASSEMBLY_OUTER-PISTON,ASSEMBLY_INNER-TUBE)
          THE CONTACT CONSTRAINTS HAVE CONVERGED.

 AVERAGE FORCE                      1.174E+03   TIME AVG. FORCE        620.    
 LARGEST RESIDUAL FORCE             -6.88       AT NODE        441   DOF  2
   INSTANCE: PISTON-1                                                                        
 LARGEST INCREMENT OF DISP.         6.967E-02   AT NODE       1681   DOF  2
   INSTANCE: PISTON-1                                                                        
 LARGEST CORRECTION TO DISP.       -2.521E-05   AT NODE        441   DOF  1
   INSTANCE: PISTON-1                                                                        
          FORCE     EQUILIBRIUM NOT ACHIEVED WITHIN TOLERANCE.

  NUMBER OF EQUATIONS =    19308     NUMBER OF FLOATING PT. OPERATIONS =  4.34E+07

  USING THE DIRECT SOLVER WITH  14 PROCESSORS

     CHECK POINT   START OF SOLVER    

     CHECK POINT  END OF SOLVER       

       ELAPSED USER TIME (SEC)      =  0.53000    
       ELAPSED SYSTEM TIME (SEC)    =  0.19000    
       ELAPSED TOTAL CPU TIME (SEC) =  0.72000    
       ELAPSED WALLCLOCK TIME (SEC) =          0
  
     ASYNCHRONOUS TRACKING ELEMENT LOOP STARTED
  

               CONVERGENCE CHECKS FOR EQUILIBRIUM ITERATION     3

   MAX. PENETRATION ERROR -196.542E-09   AT NODE PISTON-1.441 OF CONTACT PAIR 
   (ASSEMBLY_OUTER-PISTON,ASSEMBLY_INNER-TUBE)
   MAX. CONTACT FORCE ERROR -171.875E-03   AT NODE PISTON-1.441 OF CONTACT PAIR 
   (ASSEMBLY_OUTER-PISTON,ASSEMBLY_INNER-TUBE)
          THE CONTACT CONSTRAINTS HAVE CONVERGED.

 AVERAGE FORCE                      1.174E+03   TIME AVG. FORCE        620.    
 LARGEST RESIDUAL FORCE             0.622       AT NODE        441   DOF  1
   INSTANCE: PISTON-1                                                                        
 LARGEST INCREMENT OF DISP.         6.967E-02   AT NODE       1681   DOF  2
   INSTANCE: PISTON-1                                                                        
 LARGEST CORRECTION TO DISP.       -8.376E-07   AT NODE        441   DOF  2
   INSTANCE: PISTON-1                                                                        
          THE FORCE     EQUILIBRIUM EQUATIONS HAVE CONVERGED
          TIME INCREMENT MAY NOW INCREASE TO    3.375E-08

 ITERATION SUMMARY FOR THE INCREMENT:   4 TOTAL ITERATIONS, OF WHICH
   1 ARE SEVERE DISCONTINUITY ITERATIONS AND  3 ARE EQUILIBRIUM ITERATIONS.

 TIME INCREMENT COMPLETED  2.250E-08,  FRACTION OF STEP COMPLETED  5.750E-08
 STEP TIME COMPLETED       5.750E-08,  TOTAL TIME COMPLETED        5.750E-08
  
     ASYNCHRONOUS OUTPUT DATABASE FRAME FLUSH STARTED
  


  INCREMENT     5 STARTS. ATTEMPT NUMBER  1, TIME INCREMENT  3.375E-08
  
     ASYNCHRONOUS TRACKING ELEMENT LOOP STARTED
  

  NUMBER OF EQUATIONS =    19308     NUMBER OF FLOATING PT. OPERATIONS =  4.47E+07

  USING THE DIRECT SOLVER WITH  14 PROCESSORS

     CHECK POINT   START OF SOLVER    

     CHECK POINT  END OF SOLVER       

       ELAPSED USER TIME (SEC)      =  0.57000    
       ELAPSED SYSTEM TIME (SEC)    =  0.15000    
       ELAPSED TOTAL CPU TIME (SEC) =  0.72000    
       ELAPSED WALLCLOCK TIME (SEC) =          0
  
     ASYNCHRONOUS TRACKING ELEMENT LOOP STARTED
  

                    5 SEVERE DISCONTINUITIES OCCURRED DURING THIS ITERATION.
                    1 POINTS CHANGED FROM OPEN TO CLOSED
                    3 POINTS CHANGED FROM CLOSED TO OPEN
                    1 POINTS CHANGED FROM STICKING TO SLIPPING

               CONVERGENCE CHECKS FOR SEVERE DISCONTINUITY ITERATION     1

   MAX. PENETRATION ERROR -120.742E-06   AT NODE PISTON-1.441 OF CONTACT PAIR 
   (ASSEMBLY_OUTER-PISTON,ASSEMBLY_INNER-TUBE)
   MAX. CONTACT FORCE ERROR -132.600       AT NODE PISTON-1.441 OF CONTACT PAIR 
   (ASSEMBLY_OUTER-PISTON,ASSEMBLY_INNER-TUBE)
          THE CONTACT CONSTRAINT ERRORS ARE WITHIN THE TOLERANCES.

 AVERAGE FORCE                      1.147E+03   TIME AVG. FORCE        726.    
 LARGEST RESIDUAL FORCE            -7.496E+03   AT NODE       2676   DOF  2
   INSTANCE: TUBE-1                                                                          
 LARGEST INCREMENT OF DISP.         0.112       AT NODE       1681   DOF  2
   INSTANCE: PISTON-1                                                                        
 LARGEST CORRECTION TO DISP.       -1.608E-02   AT NODE        441   DOF  1
   INSTANCE: PISTON-1                                                                        
          FORCE     EQUILIBRIUM NOT ACHIEVED WITHIN TOLERANCE.

  NUMBER OF EQUATIONS =    19308     NUMBER OF FLOATING PT. OPERATIONS =  4.48E+07

  USING THE DIRECT SOLVER WITH  14 PROCESSORS

     CHECK POINT   START OF SOLVER    

     CHECK POINT  END OF SOLVER       

       ELAPSED USER TIME (SEC)      =  0.61000    
       ELAPSED SYSTEM TIME (SEC)    =  0.19000    
       ELAPSED TOTAL CPU TIME (SEC) =  0.80000    
       ELAPSED WALLCLOCK TIME (SEC) =          0
  
     ASYNCHRONOUS TRACKING ELEMENT LOOP STARTED
  

                    1 SEVERE DISCONTINUITIES OCCURRED DURING THIS ITERATION.
                    1 POINTS CHANGED FROM CLOSED TO OPEN

               CONVERGENCE CHECKS FOR SEVERE DISCONTINUITY ITERATION     2

   MAX. PENETRATION ERROR 153.138E-06   AT NODE PISTON-1.441 OF CONTACT PAIR 
   (ASSEMBLY_OUTER-PISTON,ASSEMBLY_INNER-TUBE)
   MAX. CONTACT FORCE ERROR 168.761       AT NODE PISTON-1.441 OF CONTACT PAIR 
   (ASSEMBLY_OUTER-PISTON,ASSEMBLY_INNER-TUBE)
          THE CONTACT CONSTRAINT ERRORS ARE WITHIN THE TOLERANCES.

 AVERAGE FORCE                      1.132E+03   TIME AVG. FORCE        723.    
 LARGEST RESIDUAL FORCE            -1.036E+03   AT NODE        441   DOF  1
   INSTANCE: PISTON-1                                                                        
 LARGEST INCREMENT OF DISP.         0.113       AT NODE       1681   DOF  2
   INSTANCE: PISTON-1                                                                        
 LARGEST CORRECTION TO DISP.        1.875E-03   AT NODE        441   DOF  2
   INSTANCE: PISTON-1                                                                        
          FORCE     EQUILIBRIUM NOT ACHIEVED WITHIN TOLERANCE.

  NUMBER OF EQUATIONS =    19308     NUMBER OF FLOATING PT. OPERATIONS =  4.45E+07

  USING THE DIRECT SOLVER WITH  14 PROCESSORS

     CHECK POINT   START OF SOLVER    

     CHECK POINT  END OF SOLVER       

       ELAPSED USER TIME (SEC)      =   1.2700    
       ELAPSED SYSTEM TIME (SEC)    =  0.14000    
       ELAPSED TOTAL CPU TIME (SEC) =   1.4100    
       ELAPSED WALLCLOCK TIME (SEC) =          0
  
     ASYNCHRONOUS TRACKING ELEMENT LOOP STARTED
  

               CONVERGENCE CHECKS FOR EQUILIBRIUM ITERATION     1

   MAX. PENETRATION ERROR -8.02348E-06 AT NODE PISTON-1.441 OF CONTACT PAIR 
   (ASSEMBLY_OUTER-PISTON,ASSEMBLY_INNER-TUBE)
   MAX. CONTACT FORCE ERROR -8.84007     AT NODE PISTON-1.441 OF CONTACT PAIR 
   (ASSEMBLY_OUTER-PISTON,ASSEMBLY_INNER-TUBE)
          THE CONTACT CONSTRAINTS HAVE CONVERGED.

 AVERAGE FORCE                      1.134E+03   TIME AVG. FORCE        723.    
 LARGEST RESIDUAL FORCE              47.1       AT NODE        441   DOF  1
   INSTANCE: PISTON-1                                                                        
 LARGEST INCREMENT OF DISP.         0.113       AT NODE       1681   DOF  2
   INSTANCE: PISTON-1                                                                        
 LARGEST CORRECTION TO DISP.       -3.004E-04   AT NODE        441   DOF  1
   INSTANCE: PISTON-1                                                                        
          FORCE     EQUILIBRIUM NOT ACHIEVED WITHIN TOLERANCE.

  NUMBER OF EQUATIONS =    19308     NUMBER OF FLOATING PT. OPERATIONS =  4.45E+07

  USING THE DIRECT SOLVER WITH  14 PROCESSORS

     CHECK POINT   START OF SOLVER    

     CHECK POINT  END OF SOLVER       

       ELAPSED USER TIME (SEC)      =  0.97000    
       ELAPSED SYSTEM TIME (SEC)    =  0.14000    
       ELAPSED TOTAL CPU TIME (SEC) =   1.1100    
       ELAPSED WALLCLOCK TIME (SEC) =          0
  
     ASYNCHRONOUS TRACKING ELEMENT LOOP STARTED
  

               CONVERGENCE CHECKS FOR EQUILIBRIUM ITERATION     2

   MAX. PENETRATION ERROR 52.3338E-09  AT NODE PISTON-1.441 OF CONTACT PAIR 
   (ASSEMBLY_OUTER-PISTON,ASSEMBLY_INNER-TUBE)
   MAX. CONTACT FORCE ERROR 57.6601E-03  AT NODE PISTON-1.441 OF CONTACT PAIR 
   (ASSEMBLY_OUTER-PISTON,ASSEMBLY_INNER-TUBE)
          THE CONTACT CONSTRAINTS HAVE CONVERGED.

 AVERAGE FORCE                      1.134E+03   TIME AVG. FORCE        723.    
 LARGEST RESIDUAL FORCE            -0.750       AT NODE       2676   DOF  2
   INSTANCE: TUBE-1                                                                          
 LARGEST INCREMENT OF DISP.         0.113       AT NODE       1681   DOF  2
   INSTANCE: PISTON-1                                                                        
 LARGEST CORRECTION TO DISP.        1.460E-05   AT NODE        441   DOF  1
   INSTANCE: PISTON-1                                                                        
          THE FORCE     EQUILIBRIUM EQUATIONS HAVE CONVERGED
          TIME INCREMENT MAY NOW INCREASE TO    5.063E-08

 ITERATION SUMMARY FOR THE INCREMENT:   4 TOTAL ITERATIONS, OF WHICH
   2 ARE SEVERE DISCONTINUITY ITERATIONS AND  2 ARE EQUILIBRIUM ITERATIONS.

 TIME INCREMENT COMPLETED  3.375E-08,  FRACTION OF STEP COMPLETED  9.125E-08
 STEP TIME COMPLETED       9.125E-08,  TOTAL TIME COMPLETED        9.125E-08
  
     ASYNCHRONOUS OUTPUT DATABASE FRAME FLUSH STARTED
  


  INCREMENT     6 STARTS. ATTEMPT NUMBER  1, TIME INCREMENT  5.063E-08
  
     ASYNCHRONOUS TRACKING ELEMENT LOOP STARTED
  

  NUMBER OF EQUATIONS =    19308     NUMBER OF FLOATING PT. OPERATIONS =  4.45E+07

  USING THE DIRECT SOLVER WITH  14 PROCESSORS

     CHECK POINT   START OF SOLVER    

     CHECK POINT  END OF SOLVER       

       ELAPSED USER TIME (SEC)      =  0.52000    
       ELAPSED SYSTEM TIME (SEC)    =  0.20000    
       ELAPSED TOTAL CPU TIME (SEC) =  0.72000    
       ELAPSED WALLCLOCK TIME (SEC) =          0
  
     ASYNCHRONOUS TRACKING ELEMENT LOOP STARTED
  

                   20 SEVERE DISCONTINUITIES OCCURRED DURING THIS ITERATION.
                    9 POINTS CHANGED FROM OPEN TO CLOSED
                    2 POINTS CHANGED FROM CLOSED TO OPEN
                    9 POINTS CHANGED FROM STICKING TO SLIPPING

               CONVERGENCE CHECKS FOR SEVERE DISCONTINUITY ITERATION     1

   MAX. PENETRATION ERROR 20.6351E-03  AT NODE PISTON-1.1679 OF CONTACT PAIR 
   (ASSEMBLY_OUTER-PISTON,ASSEMBLY_INNER-TUBE)
   MAX. CONTACT FORCE ERROR 45.2849E+03  AT NODE PISTON-1.1679 OF CONTACT PAIR 
   (ASSEMBLY_OUTER-PISTON,ASSEMBLY_INNER-TUBE)
          PENETRATION ERROR TOO LARGE COMPARED TO DISPLACEMENT INCREMENT.

 AVERAGE FORCE                       935.       TIME AVG. FORCE        758.    
 LARGEST RESIDUAL FORCE             8.581E+03   AT NODE        441   DOF  1
   INSTANCE: PISTON-1                                                                        
 LARGEST INCREMENT OF DISP.         0.189       AT NODE       1681   DOF  2
   INSTANCE: PISTON-1                                                                        
 LARGEST CORRECTION TO DISP.        2.022E-02   AT NODE       1681   DOF  2
   INSTANCE: PISTON-1                                                                        
          FORCE     EQUILIBRIUM NOT ACHIEVED WITHIN TOLERANCE.

  NUMBER OF EQUATIONS =    19308     NUMBER OF FLOATING PT. OPERATIONS =  4.36E+07

  USING THE DIRECT SOLVER WITH  14 PROCESSORS

     CHECK POINT   START OF SOLVER    

     CHECK POINT  END OF SOLVER       

       ELAPSED USER TIME (SEC)      =  0.55000    
       ELAPSED SYSTEM TIME (SEC)    =  0.18000    
       ELAPSED TOTAL CPU TIME (SEC) =  0.73000    
       ELAPSED WALLCLOCK TIME (SEC) =          0
  
     ASYNCHRONOUS TRACKING ELEMENT LOOP STARTED
  

                   16 SEVERE DISCONTINUITIES OCCURRED DURING THIS ITERATION.
                    6 POINTS CHANGED FROM OPEN TO CLOSED
                    4 POINTS CHANGED FROM CLOSED TO OPEN
                    6 POINTS CHANGED FROM STICKING TO SLIPPING

               CONVERGENCE CHECKS FOR SEVERE DISCONTINUITY ITERATION     2

   MAX. PENETRATION ERROR -1.79850E-03 AT NODE PISTON-1.441 OF CONTACT PAIR 
   (ASSEMBLY_OUTER-PISTON,ASSEMBLY_INNER-TUBE)
   MAX. CONTACT FORCE ERROR -1.92024E+03 AT NODE PISTON-1.1679 OF CONTACT PAIR 
   (ASSEMBLY_OUTER-PISTON,ASSEMBLY_INNER-TUBE)
          PENETRATION ERROR TOO LARGE COMPARED TO DISPLACEMENT INCREMENT.

 AVERAGE FORCE                      1.179E+03   TIME AVG. FORCE        799.    
 LARGEST RESIDUAL FORCE            -6.987E+03   AT NODE       1679   DOF  2
   INSTANCE: PISTON-1                                                                        
 LARGEST INCREMENT OF DISP.         0.190       AT NODE       1681   DOF  2
   INSTANCE: PISTON-1                                                                        
 LARGEST CORRECTION TO DISP.       -2.685E-02   AT NODE       1679   DOF  1
   INSTANCE: PISTON-1                                                                        
          FORCE     EQUILIBRIUM NOT ACHIEVED WITHIN TOLERANCE.

  NUMBER OF EQUATIONS =    19308     NUMBER OF FLOATING PT. OPERATIONS =  4.02E+07

  USING THE DIRECT SOLVER WITH  14 PROCESSORS

     CHECK POINT   START OF SOLVER    

     CHECK POINT  END OF SOLVER       

       ELAPSED USER TIME (SEC)      =  0.56000    
       ELAPSED SYSTEM TIME (SEC)    =  0.21000    
       ELAPSED TOTAL CPU TIME (SEC) =  0.77000    
       ELAPSED WALLCLOCK TIME (SEC) =          0
  
     ASYNCHRONOUS TRACKING ELEMENT LOOP STARTED
  

                   12 SEVERE DISCONTINUITIES OCCURRED DURING THIS ITERATION.
                    4 POINTS CHANGED FROM OPEN TO CLOSED
                    4 POINTS CHANGED FROM CLOSED TO OPEN
                    4 POINTS CHANGED FROM STICKING TO SLIPPING

               CONVERGENCE CHECKS FOR SEVERE DISCONTINUITY ITERATION     3

   MAX. PENETRATION ERROR 58.8595E-06  AT NODE PISTON-1.441 OF CONTACT PAIR 
   (ASSEMBLY_OUTER-PISTON,ASSEMBLY_INNER-TUBE)
   MAX. CONTACT FORCE ERROR -110.812       AT NODE PISTON-1.420 OF CONTACT PAIR 
   (ASSEMBLY_OUTER-PISTON,ASSEMBLY_INNER-TUBE)
          THE CONTACT CONSTRAINT ERRORS ARE WITHIN THE TOLERANCES.

 AVERAGE FORCE                      1.153E+03   TIME AVG. FORCE        795.    
 LARGEST RESIDUAL FORCE              864.       AT NODE       2676   DOF  1
   INSTANCE: TUBE-1                                                                          
 LARGEST INCREMENT OF DISP.         0.190       AT NODE       1681   DOF  2
   INSTANCE: PISTON-1                                                                        
 LARGEST CORRECTION TO DISP.       -3.288E-03   AT NODE       1679   DOF  2
   INSTANCE: PISTON-1                                                                        
          FORCE     EQUILIBRIUM NOT ACHIEVED WITHIN TOLERANCE.

  NUMBER OF EQUATIONS =    19308     NUMBER OF FLOATING PT. OPERATIONS =  4.25E+07

  USING THE DIRECT SOLVER WITH  14 PROCESSORS

     CHECK POINT   START OF SOLVER    

     CHECK POINT  END OF SOLVER       

       ELAPSED USER TIME (SEC)      =  0.48000    
       ELAPSED SYSTEM TIME (SEC)    =  0.22000    
       ELAPSED TOTAL CPU TIME (SEC) =  0.70000    
       ELAPSED WALLCLOCK TIME (SEC) =          0
  
     ASYNCHRONOUS TRACKING ELEMENT LOOP STARTED
  

                    9 SEVERE DISCONTINUITIES OCCURRED DURING THIS ITERATION.
                    3 POINTS CHANGED FROM OPEN TO CLOSED
                    3 POINTS CHANGED FROM CLOSED TO OPEN
                    3 POINTS CHANGED FROM STICKING TO SLIPPING

               CONVERGENCE CHECKS FOR SEVERE DISCONTINUITY ITERATION     4

   MAX. PENETRATION ERROR -6.13016E-06 AT NODE PISTON-1.441 OF CONTACT PAIR 
   (ASSEMBLY_OUTER-PISTON,ASSEMBLY_INNER-TUBE)
   MAX. CONTACT FORCE ERROR -5.76007     AT NODE PISTON-1.441 OF CONTACT PAIR 
   (ASSEMBLY_OUTER-PISTON,ASSEMBLY_INNER-TUBE)
          THE CONTACT CONSTRAINT ERRORS ARE WITHIN THE TOLERANCES.

 AVERAGE FORCE                      1.153E+03   TIME AVG. FORCE        795.    
 LARGEST RESIDUAL FORCE             -91.7       AT NODE        441   DOF  1
   INSTANCE: PISTON-1                                                                        
 LARGEST INCREMENT OF DISP.         0.190       AT NODE       1681   DOF  2
   INSTANCE: PISTON-1                                                                        
 LARGEST CORRECTION TO DISP.        2.932E-04   AT NODE        441   DOF  2
   INSTANCE: PISTON-1                                                                        
          FORCE     EQUILIBRIUM NOT ACHIEVED WITHIN TOLERANCE.

  NUMBER OF EQUATIONS =    19308     NUMBER OF FLOATING PT. OPERATIONS =  4.23E+07

  USING THE DIRECT SOLVER WITH  14 PROCESSORS

     CHECK POINT   START OF SOLVER    

     CHECK POINT  END OF SOLVER       

       ELAPSED USER TIME (SEC)      =  0.67000    
       ELAPSED SYSTEM TIME (SEC)    =  0.23000    
       ELAPSED TOTAL CPU TIME (SEC) =  0.90000    
       ELAPSED WALLCLOCK TIME (SEC) =          1
  
     ASYNCHRONOUS TRACKING ELEMENT LOOP STARTED
  

                   10 SEVERE DISCONTINUITIES OCCURRED DURING THIS ITERATION.
                    4 POINTS CHANGED FROM OPEN TO CLOSED
                    2 POINTS CHANGED FROM CLOSED TO OPEN
                    4 POINTS CHANGED FROM STICKING TO SLIPPING

               CONVERGENCE CHECKS FOR SEVERE DISCONTINUITY ITERATION     5

   MAX. PENETRATION ERROR 454.675E-09   AT NODE PISTON-1.441 OF CONTACT PAIR 
   (ASSEMBLY_OUTER-PISTON,ASSEMBLY_INNER-TUBE)
   MAX. CONTACT FORCE ERROR 536.564E-03   AT NODE PISTON-1.420 OF CONTACT PAIR 
   (ASSEMBLY_OUTER-PISTON,ASSEMBLY_INNER-TUBE)
          THE CONTACT CONSTRAINT ERRORS ARE WITHIN THE TOLERANCES.

 AVERAGE FORCE                      1.153E+03   TIME AVG. FORCE        795.    
 LARGEST RESIDUAL FORCE              8.65       AT NODE        441   DOF  2
   INSTANCE: PISTON-1                                                                        
 LARGEST INCREMENT OF DISP.         0.190       AT NODE       1681   DOF  2
   INSTANCE: PISTON-1                                                                        
 LARGEST CORRECTION TO DISP.       -2.921E-05   AT NODE        441   DOF  2
   INSTANCE: PISTON-1                                                                        
          FORCE     EQUILIBRIUM NOT ACHIEVED WITHIN TOLERANCE.

  NUMBER OF EQUATIONS =    19308     NUMBER OF FLOATING PT. OPERATIONS =  4.24E+07

  USING THE DIRECT SOLVER WITH  14 PROCESSORS

     CHECK POINT   START OF SOLVER    

     CHECK POINT  END OF SOLVER       

       ELAPSED USER TIME (SEC)      =  0.53000    
       ELAPSED SYSTEM TIME (SEC)    =  0.20000    
       ELAPSED TOTAL CPU TIME (SEC) =  0.73000    
       ELAPSED WALLCLOCK TIME (SEC) =          0
  
     ASYNCHRONOUS TRACKING ELEMENT LOOP STARTED
  

                    8 SEVERE DISCONTINUITIES OCCURRED DURING THIS ITERATION.
                    3 POINTS CHANGED FROM OPEN TO CLOSED
                    2 POINTS CHANGED FROM CLOSED TO OPEN
                    3 POINTS CHANGED FROM STICKING TO SLIPPING

               CONVERGENCE CHECKS FOR SEVERE DISCONTINUITY ITERATION     6

   MAX. PENETRATION ERROR -82.8508E-09  AT NODE PISTON-1.441 OF CONTACT PAIR 
   (ASSEMBLY_OUTER-PISTON,ASSEMBLY_INNER-TUBE)
   MAX. CONTACT FORCE ERROR -77.8383E-03  AT NODE PISTON-1.441 OF CONTACT PAIR 
   (ASSEMBLY_OUTER-PISTON,ASSEMBLY_INNER-TUBE)
          THE CONTACT CONSTRAINT ERRORS ARE WITHIN THE TOLERANCES.

 AVERAGE FORCE                      1.153E+03   TIME AVG. FORCE        795.    
 LARGEST RESIDUAL FORCE             -1.27       AT NODE        441   DOF  1
   INSTANCE: PISTON-1                                                                        
 LARGEST INCREMENT OF DISP.         0.190       AT NODE       1681   DOF  2
   INSTANCE: PISTON-1                                                                        
 LARGEST CORRECTION TO DISP.        3.743E-06   AT NODE        441   DOF  2
   INSTANCE: PISTON-1                                                                        
          THE FORCE     EQUILIBRIUM EQUATIONS HAVE CONVERGED
          TIME INCREMENT MAY NOW INCREASE TO    7.594E-08

 ITERATION SUMMARY FOR THE INCREMENT:   6 TOTAL ITERATIONS, OF WHICH
   6 ARE SEVERE DISCONTINUITY ITERATIONS AND  0 ARE EQUILIBRIUM ITERATIONS.

 TIME INCREMENT COMPLETED  5.063E-08,  FRACTION OF STEP COMPLETED  1.419E-07
 STEP TIME COMPLETED       1.419E-07,  TOTAL TIME COMPLETED        1.419E-07
  
     ASYNCHRONOUS OUTPUT DATABASE FRAME FLUSH STARTED
  


  INCREMENT     7 STARTS. ATTEMPT NUMBER  1, TIME INCREMENT  7.594E-08
  
     ASYNCHRONOUS TRACKING ELEMENT LOOP STARTED
  

  NUMBER OF EQUATIONS =    19308     NUMBER OF FLOATING PT. OPERATIONS =  4.40E+07

  USING THE DIRECT SOLVER WITH  14 PROCESSORS

     CHECK POINT   START OF SOLVER    

     CHECK POINT  END OF SOLVER       

       ELAPSED USER TIME (SEC)      =  0.56000    
       ELAPSED SYSTEM TIME (SEC)    =  0.19000    
       ELAPSED TOTAL CPU TIME (SEC) =  0.75000    
       ELAPSED WALLCLOCK TIME (SEC) =          0
  
     ASYNCHRONOUS TRACKING ELEMENT LOOP STARTED
  

                   14 SEVERE DISCONTINUITIES OCCURRED DURING THIS ITERATION.
                    5 POINTS CHANGED FROM OPEN TO CLOSED
                    4 POINTS CHANGED FROM CLOSED TO OPEN
                    5 POINTS CHANGED FROM STICKING TO SLIPPING

               CONVERGENCE CHECKS FOR SEVERE DISCONTINUITY ITERATION     1

   MAX. PENETRATION ERROR -2.09865E-03 AT NODE PISTON-1.420 OF CONTACT PAIR 
   (ASSEMBLY_OUTER-PISTON,ASSEMBLY_INNER-TUBE)
   MAX. CONTACT FORCE ERROR -5.07788E+03 AT NODE PISTON-1.399 OF CONTACT PAIR 
   (ASSEMBLY_OUTER-PISTON,ASSEMBLY_INNER-TUBE)
          PENETRATION ERROR TOO LARGE COMPARED TO DISPLACEMENT INCREMENT.

 AVERAGE FORCE                      1.290E+03   TIME AVG. FORCE        865.    
 LARGEST RESIDUAL FORCE             1.765E+04   AT NODE        420   DOF  1
   INSTANCE: PISTON-1                                                                        
 LARGEST INCREMENT OF DISP.         0.308       AT NODE       1681   DOF  2
   INSTANCE: PISTON-1                                                                        
 LARGEST CORRECTION TO DISP.       -4.931E-02   AT NODE        420   DOF  1
   INSTANCE: PISTON-1                                                                        
          FORCE     EQUILIBRIUM NOT ACHIEVED WITHIN TOLERANCE.

  NUMBER OF EQUATIONS =    19308     NUMBER OF FLOATING PT. OPERATIONS =  4.05E+07

  USING THE DIRECT SOLVER WITH  14 PROCESSORS

     CHECK POINT   START OF SOLVER    

     CHECK POINT  END OF SOLVER       

       ELAPSED USER TIME (SEC)      =  0.64000    
       ELAPSED SYSTEM TIME (SEC)    =  0.15000    
       ELAPSED TOTAL CPU TIME (SEC) =  0.79000    
       ELAPSED WALLCLOCK TIME (SEC) =          0
  
     ASYNCHRONOUS TRACKING ELEMENT LOOP STARTED
  

                   11 SEVERE DISCONTINUITIES OCCURRED DURING THIS ITERATION.
                    4 POINTS CHANGED FROM OPEN TO CLOSED
                    3 POINTS CHANGED FROM CLOSED TO OPEN
                    4 POINTS CHANGED FROM STICKING TO SLIPPING

               CONVERGENCE CHECKS FOR SEVERE DISCONTINUITY ITERATION     2

   MAX. PENETRATION ERROR -91.1092E-06  AT NODE PISTON-1.420 OF CONTACT PAIR 
   (ASSEMBLY_OUTER-PISTON,ASSEMBLY_INNER-TUBE)
   MAX. CONTACT FORCE ERROR -195.240       AT NODE PISTON-1.420 OF CONTACT PAIR 
   (ASSEMBLY_OUTER-PISTON,ASSEMBLY_INNER-TUBE)
          THE CONTACT CONSTRAINT ERRORS ARE WITHIN THE TOLERANCES.

 AVERAGE FORCE                      1.256E+03   TIME AVG. FORCE        861.    
 LARGEST RESIDUAL FORCE             3.202E+03   AT NODE       1679   DOF  1
   INSTANCE: PISTON-1                                                                        
 LARGEST INCREMENT OF DISP.         0.305       AT NODE       1681   DOF  2
   INSTANCE: PISTON-1                                                                        
 LARGEST CORRECTION TO DISP.       -1.212E-02   AT NODE       1679   DOF  2
   INSTANCE: PISTON-1                                                                        
          FORCE     EQUILIBRIUM NOT ACHIEVED WITHIN TOLERANCE.

  NUMBER OF EQUATIONS =    19308     NUMBER OF FLOATING PT. OPERATIONS =  4.32E+07

  USING THE DIRECT SOLVER WITH  14 PROCESSORS

     CHECK POINT   START OF SOLVER    

     CHECK POINT  END OF SOLVER       

       ELAPSED USER TIME (SEC)      =  0.55000    
       ELAPSED SYSTEM TIME (SEC)    =  0.18000    
       ELAPSED TOTAL CPU TIME (SEC) =  0.73000    
       ELAPSED WALLCLOCK TIME (SEC) =          0
  
     ASYNCHRONOUS TRACKING ELEMENT LOOP STARTED
  

                    8 SEVERE DISCONTINUITIES OCCURRED DURING THIS ITERATION.
                    3 POINTS CHANGED FROM OPEN TO CLOSED
                    2 POINTS CHANGED FROM CLOSED TO OPEN
                    3 POINTS CHANGED FROM STICKING TO SLIPPING

               CONVERGENCE CHECKS FOR SEVERE DISCONTINUITY ITERATION     3

   MAX. PENETRATION ERROR -4.11770E-06 AT NODE PISTON-1.420 OF CONTACT PAIR 
   (ASSEMBLY_OUTER-PISTON,ASSEMBLY_INNER-TUBE)
   MAX. CONTACT FORCE ERROR -8.83336     AT NODE PISTON-1.420 OF CONTACT PAIR 
   (ASSEMBLY_OUTER-PISTON,ASSEMBLY_INNER-TUBE)
          THE CONTACT CONSTRAINT ERRORS ARE WITHIN THE TOLERANCES.

 AVERAGE FORCE                      1.259E+03   TIME AVG. FORCE        861.    
 LARGEST RESIDUAL FORCE              122.       AT NODE       2676   DOF  1
   INSTANCE: TUBE-1                                                                          
 LARGEST INCREMENT OF DISP.         0.306       AT NODE       1681   DOF  2
   INSTANCE: PISTON-1                                                                        
 LARGEST CORRECTION TO DISP.        6.514E-04   AT NODE       1679   DOF  2
   INSTANCE: PISTON-1                                                                        
          FORCE     EQUILIBRIUM NOT ACHIEVED WITHIN TOLERANCE.

  NUMBER OF EQUATIONS =    19308     NUMBER OF FLOATING PT. OPERATIONS =  4.29E+07

  USING THE DIRECT SOLVER WITH  14 PROCESSORS

     CHECK POINT   START OF SOLVER    

     CHECK POINT  END OF SOLVER       

       ELAPSED USER TIME (SEC)      =  0.55000    
       ELAPSED SYSTEM TIME (SEC)    =  0.23000    
       ELAPSED TOTAL CPU TIME (SEC) =  0.78000    
       ELAPSED WALLCLOCK TIME (SEC) =          0
  
     ASYNCHRONOUS TRACKING ELEMENT LOOP STARTED
  

                    4 SEVERE DISCONTINUITIES OCCURRED DURING THIS ITERATION.
                    1 POINTS CHANGED FROM OPEN TO CLOSED
                    2 POINTS CHANGED FROM CLOSED TO OPEN
                    1 POINTS CHANGED FROM STICKING TO SLIPPING

               CONVERGENCE CHECKS FOR SEVERE DISCONTINUITY ITERATION     4

   MAX. PENETRATION ERROR 873.851E-09   AT NODE PISTON-1.420 OF CONTACT PAIR 
   (ASSEMBLY_OUTER-PISTON,ASSEMBLY_INNER-TUBE)
   MAX. CONTACT FORCE ERROR 1.87397     AT NODE PISTON-1.420 OF CONTACT PAIR 
   (ASSEMBLY_OUTER-PISTON,ASSEMBLY_INNER-TUBE)
          THE CONTACT CONSTRAINT ERRORS ARE WITHIN THE TOLERANCES.

 AVERAGE FORCE                      1.259E+03   TIME AVG. FORCE        861.    
 LARGEST RESIDUAL FORCE              26.5       AT NODE       1679   DOF  1
   INSTANCE: PISTON-1                                                                        
 LARGEST INCREMENT OF DISP.         0.306       AT NODE       1681   DOF  2
   INSTANCE: PISTON-1                                                                        
 LARGEST CORRECTION TO DISP.       -1.442E-04   AT NODE       1679   DOF  2
   INSTANCE: PISTON-1                                                                        
          FORCE     EQUILIBRIUM NOT ACHIEVED WITHIN TOLERANCE.

  NUMBER OF EQUATIONS =    19308     NUMBER OF FLOATING PT. OPERATIONS =  4.13E+07

  USING THE DIRECT SOLVER WITH  14 PROCESSORS

     CHECK POINT   START OF SOLVER    

     CHECK POINT  END OF SOLVER       

       ELAPSED USER TIME (SEC)      =  0.50000    
       ELAPSED SYSTEM TIME (SEC)    =  0.23000    
       ELAPSED TOTAL CPU TIME (SEC) =  0.73000    
       ELAPSED WALLCLOCK TIME (SEC) =          0
  
     ASYNCHRONOUS TRACKING ELEMENT LOOP STARTED
  

                    1 SEVERE DISCONTINUITIES OCCURRED DURING THIS ITERATION.
                    1 POINTS CHANGED FROM CLOSED TO OPEN

               CONVERGENCE CHECKS FOR SEVERE DISCONTINUITY ITERATION     5

   MAX. PENETRATION ERROR 58.3588E-09  AT NODE PISTON-1.441 OF CONTACT PAIR 
   (ASSEMBLY_OUTER-PISTON,ASSEMBLY_INNER-TUBE)
   MAX. CONTACT FORCE ERROR 88.3307E-03  AT NODE PISTON-1.441 OF CONTACT PAIR 
   (ASSEMBLY_OUTER-PISTON,ASSEMBLY_INNER-TUBE)
          THE CONTACT CONSTRAINT ERRORS ARE WITHIN THE TOLERANCES.

 AVERAGE FORCE                      1.259E+03   TIME AVG. FORCE        861.    
 LARGEST RESIDUAL FORCE              1.98       AT NODE        441   DOF  1
   INSTANCE: PISTON-1                                                                        
 LARGEST INCREMENT OF DISP.         0.306       AT NODE       1681   DOF  2
   INSTANCE: PISTON-1                                                                        
 LARGEST CORRECTION TO DISP.       -1.074E-05   AT NODE        441   DOF  2
   INSTANCE: PISTON-1                                                                        
          THE FORCE     EQUILIBRIUM EQUATIONS HAVE CONVERGED
          TIME INCREMENT MAY NOW INCREASE TO    1.139E-07

 ITERATION SUMMARY FOR THE INCREMENT:   5 TOTAL ITERATIONS, OF WHICH
   5 ARE SEVERE DISCONTINUITY ITERATIONS AND  0 ARE EQUILIBRIUM ITERATIONS.

 TIME INCREMENT COMPLETED  7.594E-08,  FRACTION OF STEP COMPLETED  2.178E-07
 STEP TIME COMPLETED       2.178E-07,  TOTAL TIME COMPLETED        2.178E-07
  
     ASYNCHRONOUS OUTPUT DATABASE FRAME FLUSH STARTED
  


  INCREMENT     8 STARTS. ATTEMPT NUMBER  1, TIME INCREMENT  1.139E-07
  
     ASYNCHRONOUS TRACKING ELEMENT LOOP STARTED
  

  NUMBER OF EQUATIONS =    19308     NUMBER OF FLOATING PT. OPERATIONS =  4.31E+07

  USING THE DIRECT SOLVER WITH  14 PROCESSORS

     CHECK POINT   START OF SOLVER    

     CHECK POINT  END OF SOLVER       

       ELAPSED USER TIME (SEC)      =  0.71000    
       ELAPSED SYSTEM TIME (SEC)    =  0.17000    
       ELAPSED TOTAL CPU TIME (SEC) =  0.88000    
       ELAPSED WALLCLOCK TIME (SEC) =          0
 

 ***WARNING: THE SYSTEM MATRIX HAS 1 NEGATIVE EIGENVALUES.

     NEGATIVE EIGENVALUES MEAN THAT THE SYSTEM MATRIX IS NOT 
     POSITIVE DEFINITE:
     FOR EXAMPLE, A BIFURCATION (BUCKLING) LOAD MAY HAVE BEEN EXCEEDED.
  
     ASYNCHRONOUS TRACKING ELEMENT LOOP STARTED
  
   ELEMENT PISTON-1.759 IS DISTORTING EXCESSIVELY.

 ***WARNING: EXCESSIVE DISTORTION AT A TOTAL OF 1 INTEGRATION POINTS IN SOLID 
             (CONTINUUM) ELEMENTS
 

 ***NOTE: ELEMENTS ARE DISTORTING EXCESSIVELY. CONVERGENCE IS JUDGED UNLIKELY.

 ***WARNING: CONVERGENCE JUDGED UNLIKELY.  INCREMENT WILL BE ATTEMPTED AGAIN 
             WITH A TIME INCREMENT OF 2.84766E-08


  INCREMENT     8 STARTS. ATTEMPT NUMBER  2, TIME INCREMENT  2.848E-08
  
     ASYNCHRONOUS TRACKING ELEMENT LOOP STARTED
  

  NUMBER OF EQUATIONS =    19308     NUMBER OF FLOATING PT. OPERATIONS =  4.34E+07

  USING THE DIRECT SOLVER WITH  14 PROCESSORS

     CHECK POINT   START OF SOLVER    

     CHECK POINT  END OF SOLVER       

       ELAPSED USER TIME (SEC)      =  0.52000    
       ELAPSED SYSTEM TIME (SEC)    =  0.20000    
       ELAPSED TOTAL CPU TIME (SEC) =  0.72000    
       ELAPSED WALLCLOCK TIME (SEC) =          0
  
     ASYNCHRONOUS TRACKING ELEMENT LOOP STARTED
  

                    6 SEVERE DISCONTINUITIES OCCURRED DURING THIS ITERATION.
                    3 POINTS CHANGED FROM OPEN TO CLOSED
                    3 POINTS CHANGED FROM STICKING TO SLIPPING

               CONVERGENCE CHECKS FOR SEVERE DISCONTINUITY ITERATION     1

   MAX. PENETRATION ERROR 7.87755E-03 AT NODE PISTON-1.1618 OF CONTACT PAIR 
   (ASSEMBLY_OUTER-PISTON,ASSEMBLY_INNER-TUBE)
   MAX. CONTACT FORCE ERROR 16.5149E+03  AT NODE PISTON-1.1618 OF CONTACT PAIR 
   (ASSEMBLY_OUTER-PISTON,ASSEMBLY_INNER-TUBE)
          PENETRATION ERROR TOO LARGE COMPARED TO DISPLACEMENT INCREMENT.

 AVERAGE FORCE                      1.393E+03   TIME AVG. FORCE        927.    
 LARGEST RESIDUAL FORCE             2.699E+03   AT NODE        420   DOF  2
   INSTANCE: PISTON-1                                                                        
 LARGEST INCREMENT OF DISP.         0.115       AT NODE       1681   DOF  2
   INSTANCE: PISTON-1                                                                        
 LARGEST CORRECTION TO DISP.       -1.012E-02   AT NODE        420   DOF  1
   INSTANCE: PISTON-1                                                                        
          FORCE     EQUILIBRIUM NOT ACHIEVED WITHIN TOLERANCE.

  NUMBER OF EQUATIONS =    19308     NUMBER OF FLOATING PT. OPERATIONS =  4.01E+07

  USING THE DIRECT SOLVER WITH  14 PROCESSORS

     CHECK POINT   START OF SOLVER    

     CHECK POINT  END OF SOLVER       

       ELAPSED USER TIME (SEC)      =  0.90000    
       ELAPSED SYSTEM TIME (SEC)    =  0.23000    
       ELAPSED TOTAL CPU TIME (SEC) =   1.1300    
       ELAPSED WALLCLOCK TIME (SEC) =          0
  
     ASYNCHRONOUS TRACKING ELEMENT LOOP STARTED
  

                    2 SEVERE DISCONTINUITIES OCCURRED DURING THIS ITERATION.
                    2 POINTS CHANGED FROM CLOSED TO OPEN

               CONVERGENCE CHECKS FOR SEVERE DISCONTINUITY ITERATION     2

   MAX. PENETRATION ERROR -113.844E-06   AT NODE PISTON-1.1618 OF CONTACT PAIR 
   (ASSEMBLY_OUTER-PISTON,ASSEMBLY_INNER-TUBE)
   MAX. CONTACT FORCE ERROR -14.8551E+03  AT NODE PISTON-1.399 OF CONTACT PAIR 
   (ASSEMBLY_OUTER-PISTON,ASSEMBLY_INNER-TUBE)
          THE ESTIMATED CONTACT FORCE ERROR IS OUTSIDE OF CONVERGENCE TOLERANCES.

 AVERAGE FORCE                      1.452E+03   TIME AVG. FORCE        935.    
 LARGEST RESIDUAL FORCE            -9.399E+03   AT NODE        399   DOF  1
   INSTANCE: PISTON-1                                                                        
 LARGEST INCREMENT OF DISP.         0.115       AT NODE       1681   DOF  2
   INSTANCE: PISTON-1                                                                        
 LARGEST CORRECTION TO DISP.       -7.690E-03   AT NODE       1618   DOF  1
   INSTANCE: PISTON-1                                                                        
          FORCE     EQUILIBRIUM NOT ACHIEVED WITHIN TOLERANCE.

  NUMBER OF EQUATIONS =    19308     NUMBER OF FLOATING PT. OPERATIONS =  4.00E+07

  USING THE DIRECT SOLVER WITH  14 PROCESSORS

     CHECK POINT   START OF SOLVER    

     CHECK POINT  END OF SOLVER       

       ELAPSED USER TIME (SEC)      =  0.59000    
       ELAPSED SYSTEM TIME (SEC)    =  0.19000    
       ELAPSED TOTAL CPU TIME (SEC) =  0.78000    
       ELAPSED WALLCLOCK TIME (SEC) =          0
  
     ASYNCHRONOUS TRACKING ELEMENT LOOP STARTED
  

                    2 SEVERE DISCONTINUITIES OCCURRED DURING THIS ITERATION.
                    1 POINTS CHANGED FROM OPEN TO CLOSED
                    1 POINTS CHANGED FROM STICKING TO SLIPPING

               CONVERGENCE CHECKS FOR SEVERE DISCONTINUITY ITERATION     3

   MAX. PENETRATION ERROR -12.4784E-06  AT NODE PISTON-1.1618 OF CONTACT PAIR 
   (ASSEMBLY_OUTER-PISTON,ASSEMBLY_INNER-TUBE)
   MAX. CONTACT FORCE ERROR -26.0839      AT NODE PISTON-1.1618 OF CONTACT PAIR 
   (ASSEMBLY_OUTER-PISTON,ASSEMBLY_INNER-TUBE)
          THE CONTACT CONSTRAINT ERRORS ARE WITHIN THE TOLERANCES.

 AVERAGE FORCE                      1.453E+03   TIME AVG. FORCE        935.    
 LARGEST RESIDUAL FORCE              128.       AT NODE       1557   DOF  2
   INSTANCE: PISTON-1                                                                        
 LARGEST INCREMENT OF DISP.         0.115       AT NODE       1681   DOF  2
   INSTANCE: PISTON-1                                                                        
 LARGEST CORRECTION TO DISP.       -7.631E-04   AT NODE        399   DOF  1
   INSTANCE: PISTON-1                                                                        
          FORCE     EQUILIBRIUM NOT ACHIEVED WITHIN TOLERANCE.

  NUMBER OF EQUATIONS =    19308     NUMBER OF FLOATING PT. OPERATIONS =  4.01E+07

  USING THE DIRECT SOLVER WITH  14 PROCESSORS

     CHECK POINT   START OF SOLVER    

     CHECK POINT  END OF SOLVER       

       ELAPSED USER TIME (SEC)      =  0.53000    
       ELAPSED SYSTEM TIME (SEC)    =  0.18000    
       ELAPSED TOTAL CPU TIME (SEC) =  0.71000    
       ELAPSED WALLCLOCK TIME (SEC) =          0
  
     ASYNCHRONOUS TRACKING ELEMENT LOOP STARTED
  

               CONVERGENCE CHECKS FOR EQUILIBRIUM ITERATION     1

   MAX. PENETRATION ERROR 523.400E-09   AT NODE PISTON-1.1618 OF CONTACT PAIR 
   (ASSEMBLY_OUTER-PISTON,ASSEMBLY_INNER-TUBE)
   MAX. CONTACT FORCE ERROR 1.09407     AT NODE PISTON-1.1618 OF CONTACT PAIR 
   (ASSEMBLY_OUTER-PISTON,ASSEMBLY_INNER-TUBE)
          THE CONTACT CONSTRAINTS HAVE CONVERGED.

 AVERAGE FORCE                      1.453E+03   TIME AVG. FORCE        935.    
 LARGEST RESIDUAL FORCE              7.04       AT NODE       1618   DOF  2
   INSTANCE: PISTON-1                                                                        
 LARGEST INCREMENT OF DISP.         0.115       AT NODE       1681   DOF  2
   INSTANCE: PISTON-1                                                                        
 LARGEST CORRECTION TO DISP.        2.011E-05   AT NODE       1557   DOF  2
   INSTANCE: PISTON-1                                                                        
          FORCE     EQUILIBRIUM NOT ACHIEVED WITHIN TOLERANCE.

  NUMBER OF EQUATIONS =    19308     NUMBER OF FLOATING PT. OPERATIONS =  4.01E+07

  USING THE DIRECT SOLVER WITH  14 PROCESSORS

     CHECK POINT   START OF SOLVER    

     CHECK POINT  END OF SOLVER       

       ELAPSED USER TIME (SEC)      =  0.55000    
       ELAPSED SYSTEM TIME (SEC)    =  0.18000    
       ELAPSED TOTAL CPU TIME (SEC) =  0.73000    
       ELAPSED WALLCLOCK TIME (SEC) =          0
  
     ASYNCHRONOUS TRACKING ELEMENT LOOP STARTED
  

               CONVERGENCE CHECKS FOR EQUILIBRIUM ITERATION     2

   MAX. PENETRATION ERROR 38.7108E-09  AT NODE PISTON-1.1618 OF CONTACT PAIR 
   (ASSEMBLY_OUTER-PISTON,ASSEMBLY_INNER-TUBE)
   MAX. CONTACT FORCE ERROR 80.9177E-03  AT NODE PISTON-1.1618 OF CONTACT PAIR 
   (ASSEMBLY_OUTER-PISTON,ASSEMBLY_INNER-TUBE)
          THE CONTACT CONSTRAINTS HAVE CONVERGED.

 AVERAGE FORCE                      1.453E+03   TIME AVG. FORCE        935.    
 LARGEST RESIDUAL FORCE            -0.278       AT NODE         10   DOF  1
   INSTANCE: TUBE-1                                                                          
 LARGEST INCREMENT OF DISP.         0.115       AT NODE       1681   DOF  2
   INSTANCE: PISTON-1                                                                        
 LARGEST CORRECTION TO DISP.        1.145E-06   AT NODE       1618   DOF  2
   INSTANCE: PISTON-1                                                                        
          THE FORCE     EQUILIBRIUM EQUATIONS HAVE CONVERGED
          TIME INCREMENT MAY NOW INCREASE TO    4.271E-08

 ITERATION SUMMARY FOR THE INCREMENT:   5 TOTAL ITERATIONS, OF WHICH
   3 ARE SEVERE DISCONTINUITY ITERATIONS AND  2 ARE EQUILIBRIUM ITERATIONS.

 TIME INCREMENT COMPLETED  2.848E-08,  FRACTION OF STEP COMPLETED  2.463E-07
 STEP TIME COMPLETED       2.463E-07,  TOTAL TIME COMPLETED        2.463E-07
  
     ASYNCHRONOUS OUTPUT DATABASE FRAME FLUSH STARTED
  


  INCREMENT     9 STARTS. ATTEMPT NUMBER  1, TIME INCREMENT  4.271E-08
  
     ASYNCHRONOUS TRACKING ELEMENT LOOP STARTED
  

  NUMBER OF EQUATIONS =    19308     NUMBER OF FLOATING PT. OPERATIONS =  4.19E+07

  USING THE DIRECT SOLVER WITH  14 PROCESSORS

     CHECK POINT   START OF SOLVER    

     CHECK POINT  END OF SOLVER       

       ELAPSED USER TIME (SEC)      =  0.53000    
       ELAPSED SYSTEM TIME (SEC)    =  0.18000    
       ELAPSED TOTAL CPU TIME (SEC) =  0.71000    
       ELAPSED WALLCLOCK TIME (SEC) =          1
  
     ASYNCHRONOUS TRACKING ELEMENT LOOP STARTED
  

                    7 SEVERE DISCONTINUITIES OCCURRED DURING THIS ITERATION.
                    3 POINTS CHANGED FROM OPEN TO CLOSED
                    1 POINTS CHANGED FROM CLOSED TO OPEN
                    3 POINTS CHANGED FROM STICKING TO SLIPPING

               CONVERGENCE CHECKS FOR SEVERE DISCONTINUITY ITERATION     1

   MAX. PENETRATION ERROR 772.599E-06   AT NODE PISTON-1.399 OF CONTACT PAIR 
   (ASSEMBLY_OUTER-PISTON,ASSEMBLY_INNER-TUBE)
   MAX. CONTACT FORCE ERROR 1.76607E+03 AT NODE PISTON-1.399 OF CONTACT PAIR 
   (ASSEMBLY_OUTER-PISTON,ASSEMBLY_INNER-TUBE)
          THE ESTIMATED CONTACT FORCE ERROR IS OUTSIDE OF CONVERGENCE TOLERANCES.

 AVERAGE FORCE                      1.652E+03   TIME AVG. FORCE       1.015E+03
 LARGEST RESIDUAL FORCE             7.384E+03   AT NODE       1618   DOF  1
   INSTANCE: PISTON-1                                                                        
 LARGEST INCREMENT OF DISP.         0.168       AT NODE       1681   DOF  2
   INSTANCE: PISTON-1                                                                        
 LARGEST CORRECTION TO DISP.       -1.939E-02   AT NODE       1618   DOF  1
   INSTANCE: PISTON-1                                                                        
          FORCE     EQUILIBRIUM NOT ACHIEVED WITHIN TOLERANCE.

  NUMBER OF EQUATIONS =    19308     NUMBER OF FLOATING PT. OPERATIONS =  4.05E+07

  USING THE DIRECT SOLVER WITH  14 PROCESSORS

     CHECK POINT   START OF SOLVER    

     CHECK POINT  END OF SOLVER       

       ELAPSED USER TIME (SEC)      =  0.63000    
       ELAPSED SYSTEM TIME (SEC)    =  0.20000    
       ELAPSED TOTAL CPU TIME (SEC) =  0.83000    
       ELAPSED WALLCLOCK TIME (SEC) =          0
  
     ASYNCHRONOUS TRACKING ELEMENT LOOP STARTED
  

                    1 SEVERE DISCONTINUITIES OCCURRED DURING THIS ITERATION.
                    1 POINTS CHANGED FROM CLOSED TO OPEN

               CONVERGENCE CHECKS FOR SEVERE DISCONTINUITY ITERATION     2

   MAX. PENETRATION ERROR 16.1024E-06  AT NODE PISTON-1.1618 OF CONTACT PAIR 
   (ASSEMBLY_OUTER-PISTON,ASSEMBLY_INNER-TUBE)
   MAX. CONTACT FORCE ERROR 33.8096      AT NODE PISTON-1.1618 OF CONTACT PAIR 
   (ASSEMBLY_OUTER-PISTON,ASSEMBLY_INNER-TUBE)
          THE CONTACT CONSTRAINT ERRORS ARE WITHIN THE TOLERANCES.

 AVERAGE FORCE                      1.649E+03   TIME AVG. FORCE       1.014E+03
 LARGEST RESIDUAL FORCE              375.       AT NODE       2732   DOF  1
   INSTANCE: TUBE-1                                                                          
 LARGEST INCREMENT OF DISP.         0.168       AT NODE       1681   DOF  2
   INSTANCE: PISTON-1                                                                        
 LARGEST CORRECTION TO DISP.        1.712E-03   AT NODE       1618   DOF  1
   INSTANCE: PISTON-1                                                                        
          FORCE     EQUILIBRIUM NOT ACHIEVED WITHIN TOLERANCE.

  NUMBER OF EQUATIONS =    19308     NUMBER OF FLOATING PT. OPERATIONS =  4.04E+07

  USING THE DIRECT SOLVER WITH  14 PROCESSORS

     CHECK POINT   START OF SOLVER    

     CHECK POINT  END OF SOLVER       

       ELAPSED USER TIME (SEC)      =  0.50000    
       ELAPSED SYSTEM TIME (SEC)    =  0.19000    
       ELAPSED TOTAL CPU TIME (SEC) =  0.69000    
       ELAPSED WALLCLOCK TIME (SEC) =          0
  
     ASYNCHRONOUS TRACKING ELEMENT LOOP STARTED
  

               CONVERGENCE CHECKS FOR EQUILIBRIUM ITERATION     1

   MAX. PENETRATION ERROR -1.05559E-06 AT NODE PISTON-1.1618 OF CONTACT PAIR 
   (ASSEMBLY_OUTER-PISTON,ASSEMBLY_INNER-TUBE)
   MAX. CONTACT FORCE ERROR -2.21666     AT NODE PISTON-1.1618 OF CONTACT PAIR 
   (ASSEMBLY_OUTER-PISTON,ASSEMBLY_INNER-TUBE)
          THE CONTACT CONSTRAINTS HAVE CONVERGED.

 AVERAGE FORCE                      1.650E+03   TIME AVG. FORCE       1.014E+03
 LARGEST RESIDUAL FORCE              19.9       AT NODE         10   DOF  1
   INSTANCE: TUBE-1                                                                          
 LARGEST INCREMENT OF DISP.         0.168       AT NODE       1681   DOF  2
   INSTANCE: PISTON-1                                                                        
 LARGEST CORRECTION TO DISP.       -6.099E-05   AT NODE       1618   DOF  2
   INSTANCE: PISTON-1                                                                        
          FORCE     EQUILIBRIUM NOT ACHIEVED WITHIN TOLERANCE.

  NUMBER OF EQUATIONS =    19308     NUMBER OF FLOATING PT. OPERATIONS =  4.04E+07

  USING THE DIRECT SOLVER WITH  14 PROCESSORS

     CHECK POINT   START OF SOLVER    

     CHECK POINT  END OF SOLVER       

       ELAPSED USER TIME (SEC)      =  0.77000    
       ELAPSED SYSTEM TIME (SEC)    =  0.17000    
       ELAPSED TOTAL CPU TIME (SEC) =  0.94000    
       ELAPSED WALLCLOCK TIME (SEC) =          0
  
     ASYNCHRONOUS TRACKING ELEMENT LOOP STARTED
  

               CONVERGENCE CHECKS FOR EQUILIBRIUM ITERATION     2

   MAX. PENETRATION ERROR 71.2552E-09  AT NODE PISTON-1.420 OF CONTACT PAIR 
   (ASSEMBLY_OUTER-PISTON,ASSEMBLY_INNER-TUBE)
   MAX. CONTACT FORCE ERROR 159.540E-03   AT NODE PISTON-1.420 OF CONTACT PAIR 
   (ASSEMBLY_OUTER-PISTON,ASSEMBLY_INNER-TUBE)
          THE CONTACT CONSTRAINTS HAVE CONVERGED.

 AVERAGE FORCE                      1.650E+03   TIME AVG. FORCE       1.014E+03
 LARGEST RESIDUAL FORCE              2.00       AT NODE       2732   DOF  1
   INSTANCE: TUBE-1                                                                          
 LARGEST INCREMENT OF DISP.         0.168       AT NODE       1681   DOF  2
   INSTANCE: PISTON-1                                                                        
 LARGEST CORRECTION TO DISP.        5.858E-06   AT NODE        441   DOF  2
   INSTANCE: PISTON-1                                                                        
          THE FORCE     EQUILIBRIUM EQUATIONS HAVE CONVERGED
          TIME INCREMENT MAY NOW INCREASE TO    6.407E-08

 ITERATION SUMMARY FOR THE INCREMENT:   4 TOTAL ITERATIONS, OF WHICH
   2 ARE SEVERE DISCONTINUITY ITERATIONS AND  2 ARE EQUILIBRIUM ITERATIONS.

 TIME INCREMENT COMPLETED  4.271E-08,  FRACTION OF STEP COMPLETED  2.890E-07
 STEP TIME COMPLETED       2.890E-07,  TOTAL TIME COMPLETED        2.890E-07
  
     ASYNCHRONOUS OUTPUT DATABASE FRAME FLUSH STARTED
  


  INCREMENT    10 STARTS. ATTEMPT NUMBER  1, TIME INCREMENT  6.407E-08
  
     ASYNCHRONOUS TRACKING ELEMENT LOOP STARTED
  

  NUMBER OF EQUATIONS =    19308     NUMBER OF FLOATING PT. OPERATIONS =  3.98E+07

  USING THE DIRECT SOLVER WITH  14 PROCESSORS

     CHECK POINT   START OF SOLVER    

     CHECK POINT  END OF SOLVER       

       ELAPSED USER TIME (SEC)      =  0.60000    
       ELAPSED SYSTEM TIME (SEC)    =  0.21000    
       ELAPSED TOTAL CPU TIME (SEC) =  0.81000    
       ELAPSED WALLCLOCK TIME (SEC) =          1
  
     ASYNCHRONOUS TRACKING ELEMENT LOOP STARTED
  

                    9 SEVERE DISCONTINUITIES OCCURRED DURING THIS ITERATION.
                    4 POINTS CHANGED FROM OPEN TO CLOSED
                    1 POINTS CHANGED FROM CLOSED TO OPEN
                    4 POINTS CHANGED FROM STICKING TO SLIPPING

               CONVERGENCE CHECKS FOR SEVERE DISCONTINUITY ITERATION     1

   MAX. PENETRATION ERROR -1.46983E-03 AT NODE PISTON-1.399 OF CONTACT PAIR 
   (ASSEMBLY_OUTER-PISTON,ASSEMBLY_INNER-TUBE)
   MAX. CONTACT FORCE ERROR -9.49484E+03 AT NODE PISTON-1.1557 OF CONTACT PAIR 
   (ASSEMBLY_OUTER-PISTON,ASSEMBLY_INNER-TUBE)
          PENETRATION ERROR TOO LARGE COMPARED TO DISPLACEMENT INCREMENT.

 AVERAGE FORCE                      1.907E+03   TIME AVG. FORCE       1.104E+03
 LARGEST RESIDUAL FORCE             9.370E+03   AT NODE         10   DOF  1
   INSTANCE: TUBE-1                                                                          
 LARGEST INCREMENT OF DISP.         0.248       AT NODE       1681   DOF  2
   INSTANCE: PISTON-1                                                                        
 LARGEST CORRECTION TO DISP.       -2.734E-02   AT NODE        399   DOF  1
   INSTANCE: PISTON-1                                                                        
          FORCE     EQUILIBRIUM NOT ACHIEVED WITHIN TOLERANCE.

  NUMBER OF EQUATIONS =    19308     NUMBER OF FLOATING PT. OPERATIONS =  4.09E+07

  USING THE DIRECT SOLVER WITH  14 PROCESSORS

     CHECK POINT   START OF SOLVER    

     CHECK POINT  END OF SOLVER       

       ELAPSED USER TIME (SEC)      =  0.51000    
       ELAPSED SYSTEM TIME (SEC)    =  0.21000    
       ELAPSED TOTAL CPU TIME (SEC) =  0.72000    
       ELAPSED WALLCLOCK TIME (SEC) =          0
  
     ASYNCHRONOUS TRACKING ELEMENT LOOP STARTED
  

                    1 SEVERE DISCONTINUITIES OCCURRED DURING THIS ITERATION.
                    1 POINTS CHANGED FROM CLOSED TO OPEN

               CONVERGENCE CHECKS FOR SEVERE DISCONTINUITY ITERATION     2

   MAX. PENETRATION ERROR -74.3376E-06  AT NODE PISTON-1.399 OF CONTACT PAIR 
   (ASSEMBLY_OUTER-PISTON,ASSEMBLY_INNER-TUBE)
   MAX. CONTACT FORCE ERROR -129.245       AT NODE PISTON-1.399 OF CONTACT PAIR 
   (ASSEMBLY_OUTER-PISTON,ASSEMBLY_INNER-TUBE)
          THE CONTACT CONSTRAINT ERRORS ARE WITHIN THE TOLERANCES.

 AVERAGE FORCE                      1.904E+03   TIME AVG. FORCE       1.103E+03
 LARGEST RESIDUAL FORCE             1.456E+03   AT NODE         10   DOF  1
   INSTANCE: TUBE-1                                                                          
 LARGEST INCREMENT OF DISP.         0.249       AT NODE       1681   DOF  2
   INSTANCE: PISTON-1                                                                        
 LARGEST CORRECTION TO DISP.       -4.315E-03   AT NODE       1618   DOF  2
   INSTANCE: PISTON-1                                                                        
          FORCE     EQUILIBRIUM NOT ACHIEVED WITHIN TOLERANCE.

  NUMBER OF EQUATIONS =    19308     NUMBER OF FLOATING PT. OPERATIONS =  4.09E+07

  USING THE DIRECT SOLVER WITH  14 PROCESSORS

     CHECK POINT   START OF SOLVER    

     CHECK POINT  END OF SOLVER       

       ELAPSED USER TIME (SEC)      =  0.60000    
       ELAPSED SYSTEM TIME (SEC)    =  0.19000    
       ELAPSED TOTAL CPU TIME (SEC) =  0.79000    
       ELAPSED WALLCLOCK TIME (SEC) =          0
[...]

       ELAPSED USER TIME (SEC)      =  0.50000    
       ELAPSED SYSTEM TIME (SEC)    =  0.23000    
       ELAPSED TOTAL CPU TIME (SEC) =  0.73000    
       ELAPSED WALLCLOCK TIME (SEC) =          0
  
     ASYNCHRONOUS TRACKING ELEMENT LOOP STARTED
  

               CONVERGENCE CHECKS FOR EQUILIBRIUM ITERATION     1

   MAX. PENETRATION ERROR 7.73451E-06 AT NODE PISTON-1.420 OF CONTACT PAIR 
   (ASSEMBLY_OUTER-PISTON,ASSEMBLY_INNER-TUBE)
   MAX. CONTACT FORCE ERROR 27.5260      AT NODE PISTON-1.420 OF CONTACT PAIR 
   (ASSEMBLY_OUTER-PISTON,ASSEMBLY_INNER-TUBE)
          THE CONTACT CONSTRAINTS HAVE CONVERGED.

 AVERAGE FORCE                      8.128E+03   TIME AVG. FORCE       4.694E+03
 LARGEST RESIDUAL FORCE            -6.923E+03   AT NODE        440   DOF  1
   INSTANCE: PISTON-1                                                                        
 LARGEST INCREMENT OF DISP.         1.103E-02   AT NODE       1677   DOF  2
   INSTANCE: PISTON-1                                                                        
 LARGEST CORRECTION TO DISP.       -1.860E-04   AT NODE       1674   DOF  2
   INSTANCE: PISTON-1                                                                        
          FORCE     EQUILIBRIUM NOT ACHIEVED WITHIN TOLERANCE.

  NUMBER OF EQUATIONS =    19308     NUMBER OF FLOATING PT. OPERATIONS =  4.51E+07

  USING THE DIRECT SOLVER WITH  14 PROCESSORS

     CHECK POINT   START OF SOLVER    

     CHECK POINT  END OF SOLVER       

       ELAPSED USER TIME (SEC)      =  0.55000    
       ELAPSED SYSTEM TIME (SEC)    =  0.18000    
       ELAPSED TOTAL CPU TIME (SEC) =  0.73000    
       ELAPSED WALLCLOCK TIME (SEC) =          0
  
     ASYNCHRONOUS TRACKING ELEMENT LOOP STARTED
  

               CONVERGENCE CHECKS FOR EQUILIBRIUM ITERATION     2

   MAX. PENETRATION ERROR -1.17617E-09 AT NODE PISTON-1.420 OF CONTACT PAIR 
   (ASSEMBLY_OUTER-PISTON,ASSEMBLY_INNER-TUBE)
   MAX. CONTACT FORCE ERROR -4.18582E-03 AT NODE PISTON-1.420 OF CONTACT PAIR 
   (ASSEMBLY_OUTER-PISTON,ASSEMBLY_INNER-TUBE)
          THE CONTACT CONSTRAINTS HAVE CONVERGED.

 AVERAGE FORCE                      8.127E+03   TIME AVG. FORCE       4.694E+03
 LARGEST RESIDUAL FORCE             -62.0       AT NODE        417   DOF  2
   INSTANCE: PISTON-1                                                                        
 LARGEST INCREMENT OF DISP.         1.103E-02   AT NODE       1677   DOF  2
   INSTANCE: PISTON-1                                                                        
 LARGEST CORRECTION TO DISP.        1.490E-07   AT NODE       1614   DOF  2
   INSTANCE: PISTON-1                                                                        
          FORCE     EQUILIBRIUM NOT ACHIEVED WITHIN TOLERANCE.

  NUMBER OF EQUATIONS =    19308     NUMBER OF FLOATING PT. OPERATIONS =  4.51E+07

  USING THE DIRECT SOLVER WITH  14 PROCESSORS

     CHECK POINT   START OF SOLVER    

     CHECK POINT  END OF SOLVER       

       ELAPSED USER TIME (SEC)      =  0.49000    
       ELAPSED SYSTEM TIME (SEC)    =  0.22000    
       ELAPSED TOTAL CPU TIME (SEC) =  0.71000    
       ELAPSED WALLCLOCK TIME (SEC) =          0
  
     ASYNCHRONOUS TRACKING ELEMENT LOOP STARTED
  

               CONVERGENCE CHECKS FOR EQUILIBRIUM ITERATION     3

   MAX. PENETRATION ERROR 34.8568E-12  AT NODE PISTON-1.420 OF CONTACT PAIR 
   (ASSEMBLY_OUTER-PISTON,ASSEMBLY_INNER-TUBE)
   MAX. CONTACT FORCE ERROR 124.050E-06   AT NODE PISTON-1.420 OF CONTACT PAIR 
   (ASSEMBLY_OUTER-PISTON,ASSEMBLY_INNER-TUBE)
          THE CONTACT CONSTRAINTS HAVE CONVERGED.

 AVERAGE FORCE                      8.127E+03   TIME AVG. FORCE       4.694E+03
 LARGEST RESIDUAL FORCE            -0.593       AT NODE        417   DOF  2
   INSTANCE: PISTON-1                                                                        
 LARGEST INCREMENT OF DISP.         1.103E-02   AT NODE       1677   DOF  2
   INSTANCE: PISTON-1                                                                        
 LARGEST CORRECTION TO DISP.        1.676E-09   AT NODE       1614   DOF  2
   INSTANCE: PISTON-1                                                                        
          THE FORCE     EQUILIBRIUM EQUATIONS HAVE CONVERGED

 ITERATION SUMMARY FOR THE INCREMENT:   3 TOTAL ITERATIONS, OF WHICH
   0 ARE SEVERE DISCONTINUITY ITERATIONS AND  3 ARE EQUILIBRIUM ITERATIONS.

 TIME INCREMENT COMPLETED  5.708E-10,  FRACTION OF STEP COMPLETED  1.923E-06
 STEP TIME COMPLETED       1.923E-06,  TOTAL TIME COMPLETED        1.923E-06
  
     ASYNCHRONOUS OUTPUT DATABASE FRAME FLUSH STARTED
  


  INCREMENT    64 STARTS. ATTEMPT NUMBER  1, TIME INCREMENT  5.708E-10
  
     ASYNCHRONOUS TRACKING ELEMENT LOOP STARTED
  

  NUMBER OF EQUATIONS =    19308     NUMBER OF FLOATING PT. OPERATIONS =  4.51E+07

  USING THE DIRECT SOLVER WITH  14 PROCESSORS

     CHECK POINT   START OF SOLVER    

     CHECK POINT  END OF SOLVER       

       ELAPSED USER TIME (SEC)      =  0.52000    
       ELAPSED SYSTEM TIME (SEC)    =  0.19000    
       ELAPSED TOTAL CPU TIME (SEC) =  0.71000    
       ELAPSED WALLCLOCK TIME (SEC) =          0
  
     ASYNCHRONOUS TRACKING ELEMENT LOOP STARTED
  

               CONVERGENCE CHECKS FOR EQUILIBRIUM ITERATION     1

   MAX. PENETRATION ERROR 3.59402E-06 AT NODE PISTON-1.420 OF CONTACT PAIR 
   (ASSEMBLY_OUTER-PISTON,ASSEMBLY_INNER-TUBE)
   MAX. CONTACT FORCE ERROR 12.7780      AT NODE PISTON-1.420 OF CONTACT PAIR 
   (ASSEMBLY_OUTER-PISTON,ASSEMBLY_INNER-TUBE)
          THE CONTACT CONSTRAINTS HAVE CONVERGED.

 AVERAGE FORCE                      7.876E+03   TIME AVG. FORCE       4.744E+03
 LARGEST RESIDUAL FORCE            -1.373E+04   AT NODE        440   DOF  1
   INSTANCE: PISTON-1                                                                        
 LARGEST INCREMENT OF DISP.         1.101E-02   AT NODE       1677   DOF  2
   INSTANCE: PISTON-1                                                                        
 LARGEST CORRECTION TO DISP.       -8.901E-05   AT NODE        441   DOF  1
   INSTANCE: PISTON-1                                                                        
          FORCE     EQUILIBRIUM NOT ACHIEVED WITHIN TOLERANCE.

  NUMBER OF EQUATIONS =    19308     NUMBER OF FLOATING PT. OPERATIONS =  4.51E+07

  USING THE DIRECT SOLVER WITH  14 PROCESSORS

     CHECK POINT   START OF SOLVER    

     CHECK POINT  END OF SOLVER       

       ELAPSED USER TIME (SEC)      =  0.56000    
       ELAPSED SYSTEM TIME (SEC)    =  0.17000    
       ELAPSED TOTAL CPU TIME (SEC) =  0.73000    
       ELAPSED WALLCLOCK TIME (SEC) =          1
  
     ASYNCHRONOUS TRACKING ELEMENT LOOP STARTED
  

               CONVERGENCE CHECKS FOR EQUILIBRIUM ITERATION     2

   MAX. PENETRATION ERROR -553.358E-12   AT NODE PISTON-1.420 OF CONTACT PAIR 
   (ASSEMBLY_OUTER-PISTON,ASSEMBLY_INNER-TUBE)
   MAX. CONTACT FORCE ERROR -1.96738E-03 AT NODE PISTON-1.420 OF CONTACT PAIR 
   (ASSEMBLY_OUTER-PISTON,ASSEMBLY_INNER-TUBE)
          THE CONTACT CONSTRAINTS HAVE CONVERGED.

 AVERAGE FORCE                      7.877E+03   TIME AVG. FORCE       4.744E+03
 LARGEST RESIDUAL FORCE             -36.0       AT NODE        418   DOF  2
   INSTANCE: PISTON-1                                                                        
 LARGEST INCREMENT OF DISP.         1.101E-02   AT NODE       1677   DOF  2
   INSTANCE: PISTON-1                                                                        
 LARGEST CORRECTION TO DISP.       -3.080E-07   AT NODE        440   DOF  1
   INSTANCE: PISTON-1                                                                        
          FORCE     EQUILIBRIUM NOT ACHIEVED WITHIN TOLERANCE.

  NUMBER OF EQUATIONS =    19308     NUMBER OF FLOATING PT. OPERATIONS =  4.51E+07

  USING THE DIRECT SOLVER WITH  14 PROCESSORS

     CHECK POINT   START OF SOLVER    

     CHECK POINT  END OF SOLVER       

       ELAPSED USER TIME (SEC)      =  0.49000    
       ELAPSED SYSTEM TIME (SEC)    =  0.20000    
       ELAPSED TOTAL CPU TIME (SEC) =  0.69000    
       ELAPSED WALLCLOCK TIME (SEC) =          0
  
     ASYNCHRONOUS TRACKING ELEMENT LOOP STARTED
  

               CONVERGENCE CHECKS FOR EQUILIBRIUM ITERATION     3

   MAX. PENETRATION ERROR 16.1102E-12  AT NODE PISTON-1.420 OF CONTACT PAIR 
   (ASSEMBLY_OUTER-PISTON,ASSEMBLY_INNER-TUBE)
   MAX. CONTACT FORCE ERROR 57.2774E-06  AT NODE PISTON-1.420 OF CONTACT PAIR 
   (ASSEMBLY_OUTER-PISTON,ASSEMBLY_INNER-TUBE)
          THE CONTACT CONSTRAINTS HAVE CONVERGED.

 AVERAGE FORCE                      7.877E+03   TIME AVG. FORCE       4.744E+03
 LARGEST RESIDUAL FORCE            -0.309       AT NODE        418   DOF  2
   INSTANCE: PISTON-1                                                                        
 LARGEST INCREMENT OF DISP.         1.101E-02   AT NODE       1677   DOF  2
   INSTANCE: PISTON-1                                                                        
 LARGEST CORRECTION TO DISP.        8.429E-10   AT NODE       1614   DOF  2
   INSTANCE: PISTON-1                                                                        
          THE FORCE     EQUILIBRIUM EQUATIONS HAVE CONVERGED
          TIME INCREMENT MAY NOW INCREASE TO    8.562E-10

 ITERATION SUMMARY FOR THE INCREMENT:   3 TOTAL ITERATIONS, OF WHICH
   0 ARE SEVERE DISCONTINUITY ITERATIONS AND  3 ARE EQUILIBRIUM ITERATIONS.

 TIME INCREMENT COMPLETED  5.708E-10,  FRACTION OF STEP COMPLETED  1.924E-06
 STEP TIME COMPLETED       1.924E-06,  TOTAL TIME COMPLETED        1.924E-06
  
     ASYNCHRONOUS OUTPUT DATABASE FRAME FLUSH STARTED
  


  INCREMENT    65 STARTS. ATTEMPT NUMBER  1, TIME INCREMENT  8.562E-10
  
     ASYNCHRONOUS TRACKING ELEMENT LOOP STARTED
  
   ELEMENT PISTON-1.797 IS DISTORTING EXCESSIVELY.

 ***WARNING: EXCESSIVE DISTORTION AT A TOTAL OF 1 INTEGRATION POINTS IN SOLID 
             (CONTINUUM) ELEMENTS
 

 ***NOTE: ELEMENTS ARE DISTORTING EXCESSIVELY. CONVERGENCE IS JUDGED UNLIKELY.

 ***WARNING: CONVERGENCE JUDGED UNLIKELY.  INCREMENT WILL BE ATTEMPTED AGAIN 
             WITH A TIME INCREMENT OF 2.14057E-10


  INCREMENT    65 STARTS. ATTEMPT NUMBER  2, TIME INCREMENT  2.141E-10
  
     ASYNCHRONOUS TRACKING ELEMENT LOOP STARTED
  

  NUMBER OF EQUATIONS =    19308     NUMBER OF FLOATING PT. OPERATIONS =  4.51E+07

  USING THE DIRECT SOLVER WITH  14 PROCESSORS

     CHECK POINT   START OF SOLVER    

     CHECK POINT  END OF SOLVER       

       ELAPSED USER TIME (SEC)      =  0.58000    
       ELAPSED SYSTEM TIME (SEC)    =  0.20000    
       ELAPSED TOTAL CPU TIME (SEC) =  0.78000    
       ELAPSED WALLCLOCK TIME (SEC) =          0
  
     ASYNCHRONOUS TRACKING ELEMENT LOOP STARTED
  

               CONVERGENCE CHECKS FOR EQUILIBRIUM ITERATION     1

   MAX. PENETRATION ERROR 974.582E-09   AT NODE PISTON-1.420 OF CONTACT PAIR 
   (ASSEMBLY_OUTER-PISTON,ASSEMBLY_INNER-TUBE)
   MAX. CONTACT FORCE ERROR 3.46363     AT NODE PISTON-1.420 OF CONTACT PAIR 
   (ASSEMBLY_OUTER-PISTON,ASSEMBLY_INNER-TUBE)
          THE CONTACT CONSTRAINTS HAVE CONVERGED.

 AVERAGE FORCE                      7.856E+03   TIME AVG. FORCE       4.792E+03
 LARGEST RESIDUAL FORCE            -1.132E+03   AT NODE        418   DOF  2
   INSTANCE: PISTON-1                                                                        
 LARGEST INCREMENT OF DISP.         4.126E-03   AT NODE       1677   DOF  2
   INSTANCE: PISTON-1                                                                        
 LARGEST CORRECTION TO DISP.       -2.460E-05   AT NODE        441   DOF  1
   INSTANCE: PISTON-1                                                                        
          FORCE     EQUILIBRIUM NOT ACHIEVED WITHIN TOLERANCE.

  NUMBER OF EQUATIONS =    19308     NUMBER OF FLOATING PT. OPERATIONS =  4.51E+07

  USING THE DIRECT SOLVER WITH  14 PROCESSORS

     CHECK POINT   START OF SOLVER    

     CHECK POINT  END OF SOLVER       

       ELAPSED USER TIME (SEC)      =  0.53000    
       ELAPSED SYSTEM TIME (SEC)    =  0.19000    
       ELAPSED TOTAL CPU TIME (SEC) =  0.72000    
       ELAPSED WALLCLOCK TIME (SEC) =          0
  
     ASYNCHRONOUS TRACKING ELEMENT LOOP STARTED
  

               CONVERGENCE CHECKS FOR EQUILIBRIUM ITERATION     2

   MAX. PENETRATION ERROR -20.3698E-12  AT NODE PISTON-1.420 OF CONTACT PAIR 
   (ASSEMBLY_OUTER-PISTON,ASSEMBLY_INNER-TUBE)
   MAX. CONTACT FORCE ERROR -72.3935E-06  AT NODE PISTON-1.420 OF CONTACT PAIR 
   (ASSEMBLY_OUTER-PISTON,ASSEMBLY_INNER-TUBE)
          THE CONTACT CONSTRAINTS HAVE CONVERGED.

 AVERAGE FORCE                      7.856E+03   TIME AVG. FORCE       4.792E+03
 LARGEST RESIDUAL FORCE             -1.17       AT NODE        418   DOF  2
   INSTANCE: PISTON-1                                                                        
 LARGEST INCREMENT OF DISP.         4.126E-03   AT NODE       1677   DOF  2
   INSTANCE: PISTON-1                                                                        
 LARGEST CORRECTION TO DISP.       -3.767E-09   AT NODE        441   DOF  1
   INSTANCE: PISTON-1                                                                        
          THE FORCE     EQUILIBRIUM EQUATIONS HAVE CONVERGED
          TIME INCREMENT MAY NOW INCREASE TO    3.211E-10

 ITERATION SUMMARY FOR THE INCREMENT:   2 TOTAL ITERATIONS, OF WHICH
   0 ARE SEVERE DISCONTINUITY ITERATIONS AND  2 ARE EQUILIBRIUM ITERATIONS.

 TIME INCREMENT COMPLETED  2.141E-10,  FRACTION OF STEP COMPLETED  1.924E-06
 STEP TIME COMPLETED       1.924E-06,  TOTAL TIME COMPLETED        1.924E-06
  
     ASYNCHRONOUS OUTPUT DATABASE FRAME FLUSH STARTED
  


  INCREMENT    66 STARTS. ATTEMPT NUMBER  1, TIME INCREMENT  3.211E-10
  
     ASYNCHRONOUS TRACKING ELEMENT LOOP STARTED
  
   ELEMENT PISTON-1.797 IS DISTORTING EXCESSIVELY.

 ***WARNING: EXCESSIVE DISTORTION AT A TOTAL OF 1 INTEGRATION POINTS IN SOLID 
             (CONTINUUM) ELEMENTS
 

 ***NOTE: ELEMENTS ARE DISTORTING EXCESSIVELY. CONVERGENCE IS JUDGED UNLIKELY.

 ***WARNING: CONVERGENCE JUDGED UNLIKELY.  INCREMENT WILL BE ATTEMPTED AGAIN 
             WITH A TIME INCREMENT OF 1.00000E-10


  INCREMENT    66 STARTS. ATTEMPT NUMBER  2, TIME INCREMENT  1.000E-10
  
     ASYNCHRONOUS TRACKING ELEMENT LOOP STARTED
  

  NUMBER OF EQUATIONS =    19308     NUMBER OF FLOATING PT. OPERATIONS =  4.51E+07

  USING THE DIRECT SOLVER WITH  14 PROCESSORS

     CHECK POINT   START OF SOLVER    

     CHECK POINT  END OF SOLVER       

       ELAPSED USER TIME (SEC)      =  0.59000    
       ELAPSED SYSTEM TIME (SEC)    =  0.21000    
       ELAPSED TOTAL CPU TIME (SEC) =  0.80000    
       ELAPSED WALLCLOCK TIME (SEC) =          1
  
     ASYNCHRONOUS TRACKING ELEMENT LOOP STARTED
  

               CONVERGENCE CHECKS FOR EQUILIBRIUM ITERATION     1

   MAX. PENETRATION ERROR 189.716E-09   AT NODE PISTON-1.420 OF CONTACT PAIR 
   (ASSEMBLY_OUTER-PISTON,ASSEMBLY_INNER-TUBE)
   MAX. CONTACT FORCE ERROR 674.117E-03   AT NODE PISTON-1.420 OF CONTACT PAIR 
   (ASSEMBLY_OUTER-PISTON,ASSEMBLY_INNER-TUBE)
          THE CONTACT CONSTRAINTS HAVE CONVERGED.

 AVERAGE FORCE                      7.869E+03   TIME AVG. FORCE       4.838E+03
 LARGEST RESIDUAL FORCE             -200.       AT NODE        418   DOF  2
   INSTANCE: PISTON-1                                                                        
 LARGEST INCREMENT OF DISP.         1.929E-03   AT NODE       1677   DOF  2
   INSTANCE: PISTON-1                                                                        
 LARGEST CORRECTION TO DISP.       -4.842E-06   AT NODE        441   DOF  1
   INSTANCE: PISTON-1                                                                        
          FORCE     EQUILIBRIUM NOT ACHIEVED WITHIN TOLERANCE.

  NUMBER OF EQUATIONS =    19308     NUMBER OF FLOATING PT. OPERATIONS =  4.51E+07

  USING THE DIRECT SOLVER WITH  14 PROCESSORS

     CHECK POINT   START OF SOLVER    

     CHECK POINT  END OF SOLVER       

       ELAPSED USER TIME (SEC)      =  0.53000    
       ELAPSED SYSTEM TIME (SEC)    =  0.20000    
       ELAPSED TOTAL CPU TIME (SEC) =  0.73000    
       ELAPSED WALLCLOCK TIME (SEC) =          0
  
     ASYNCHRONOUS TRACKING ELEMENT LOOP STARTED
  

               CONVERGENCE CHECKS FOR EQUILIBRIUM ITERATION     2

   MAX. PENETRATION ERROR -830.179E-15   AT NODE PISTON-1.420 OF CONTACT PAIR 
   (ASSEMBLY_OUTER-PISTON,ASSEMBLY_INNER-TUBE)
   MAX. CONTACT FORCE ERROR -2.94988E-06 AT NODE PISTON-1.420 OF CONTACT PAIR 
   (ASSEMBLY_OUTER-PISTON,ASSEMBLY_INNER-TUBE)
          THE CONTACT CONSTRAINTS HAVE CONVERGED.

 AVERAGE FORCE                      7.869E+03   TIME AVG. FORCE       4.838E+03
 LARGEST RESIDUAL FORCE            -0.220       AT NODE        420   DOF  2
   INSTANCE: PISTON-1                                                                        
 LARGEST INCREMENT OF DISP.         1.929E-03   AT NODE       1677   DOF  2
   INSTANCE: PISTON-1                                                                        
 LARGEST CORRECTION TO DISP.       -1.705E-10   AT NODE        441   DOF  1
   INSTANCE: PISTON-1                                                                        
          THE FORCE     EQUILIBRIUM EQUATIONS HAVE CONVERGED
          TIME INCREMENT MAY NOW INCREASE TO    1.500E-10

 ITERATION SUMMARY FOR THE INCREMENT:   2 TOTAL ITERATIONS, OF WHICH
   0 ARE SEVERE DISCONTINUITY ITERATIONS AND  2 ARE EQUILIBRIUM ITERATIONS.

 TIME INCREMENT COMPLETED  1.000E-10,  FRACTION OF STEP COMPLETED  1.924E-06
 STEP TIME COMPLETED       1.924E-06,  TOTAL TIME COMPLETED        1.924E-06
  
     ASYNCHRONOUS OUTPUT DATABASE FRAME FLUSH STARTED
  


  INCREMENT    67 STARTS. ATTEMPT NUMBER  1, TIME INCREMENT  1.500E-10
  
     ASYNCHRONOUS TRACKING ELEMENT LOOP STARTED
  
   ELEMENT PISTON-1.797 IS DISTORTING EXCESSIVELY.

 ***WARNING: EXCESSIVE DISTORTION AT A TOTAL OF 1 INTEGRATION POINTS IN SOLID 
             (CONTINUUM) ELEMENTS
 

 ***NOTE: ELEMENTS ARE DISTORTING EXCESSIVELY. CONVERGENCE IS JUDGED UNLIKELY.

 ***WARNING: CONVERGENCE JUDGED UNLIKELY.  INCREMENT WILL BE ATTEMPTED AGAIN 
             WITH A TIME INCREMENT OF 1.00000E-10


  INCREMENT    67 STARTS. ATTEMPT NUMBER  2, TIME INCREMENT  1.000E-10
  
     ASYNCHRONOUS TRACKING ELEMENT LOOP STARTED
  
   ELEMENT PISTON-1.797 IS DISTORTING EXCESSIVELY.

 ***WARNING: EXCESSIVE DISTORTION AT A TOTAL OF 1 INTEGRATION POINTS IN SOLID 
             (CONTINUUM) ELEMENTS
 

 ***NOTE: ELEMENTS ARE DISTORTING EXCESSIVELY. CONVERGENCE IS JUDGED UNLIKELY.
 

 ***ERROR: TIME INCREMENT REQUIRED IS LESS THAN THE MINIMUM SPECIFIED
  
     ASYNCHRONOUS TRACKING ELEMENT LOOP STARTED
  

 ***ERROR: THE ANALYSIS HAS BEEN TERMINATED DUE TO PREVIOUS ERRORS. ALL OUTPUT 
           REQUESTS HAVE BEEN WRITTEN FOR THE LAST CONVERGED INCREMENT.



     ANALYSIS SUMMARY:
     TOTAL OF         67  INCREMENTS
                      12  CUTBACKS IN AUTOMATIC INCREMENTATION
                     385  ITERATIONS INCLUDING CONTACT ITERATIONS IF PRESENT
                     385  PASSES THROUGH THE EQUATION SOLVER OF WHICH 
                     385  INVOLVE MATRIX DECOMPOSITION, INCLUDING
                       0  DECOMPOSITION(S) OF THE MASS MATRIX
                       1  REORDERING OF EQUATIONS TO MINIMIZE WAVEFRONT
                       0  ADDITIONAL RESIDUAL EVALUATIONS FOR LINE SEARCHES
                       0  ADDITIONAL OPERATOR EVALUATIONS FOR LINE SEARCHES
                       1  WARNING MESSAGES DURING USER INPUT PROCESSING
                     170  WARNING MESSAGES DURING ANALYSIS
                       0  ANALYSIS WARNINGS ARE NUMERICAL PROBLEM MESSAGES
                       6  ANALYSIS WARNINGS ARE NEGATIVE EIGENVALUE MESSAGES
                       2  ERROR MESSAGES



     JOB TIME SUMMARY
       USER TIME (SEC)      =   344.22    
       SYSTEM TIME (SEC)    =   108.23    
       TOTAL CPU TIME (SEC) =   452.45    
       WALLCLOCK TIME (SEC) =         85
