*Heading
** Job name: taper-slide Model name: Model-1
** Generated by: Abaqus/CAE 6.14-1
*Preprint, echo=NO, model=NO, history=NO, contact=NO
**
** PARTS
**
*Part, name=piston
*Node
      1,           0.,           0.
      2,   1.98452437,           0.
      3,   3.80861378,           0.
      4,   5.48523808,           0.
      5,   7.02631903,           0.
      6,   8.44281387,           0.
      7,    9.7447958,           0.
      8,   10.9415207,           0.
      9,   12.0414982,           0.
     10,   13.0525513,           0.
     11,   13.9818668,           0.
     12,   14.8360538,           0.
     13,   15.6211863,           0.
     14,   16.3428459,           0.
     15,   17.0061646,           0.
     16,   17.6158581,           0.
     17,   18.1762619,           0.
     18,   18.6913624,           0.
     19,   19.1648178,           0.
     20,   19.6000004,           0.
** ... 1661 like lines cut
*Element, type=CAX6M
  1,    1,    2,   23,  442,  443,  444
  2,   23,   22,    1,  445,  446,  444
  3,    2,    3,   24,  447,  448,  449
  4,   24,   23,    2,  450,  443,  449
  5,    3,    4,   25,  451,  452,  453
  6,   25,   24,    3,  454,  448,  453
  7,    4,    5,   26,  455,  456,  457
  8,   26,   25,    4,  458,  452,  457
  9,    5,    6,   27,  459,  460,  461
 10,   27,   26,    5,  462,  456,  461
 11,    6,    7,   28,  463,  464,  465
 12,   28,   27,    6,  466,  460,  465
 13,    7,    8,   29,  467,  468,  469
 14,   29,   28,    7,  470,  464,  469
 15,    8,    9,   30,  471,  472,  473
 16,   30,   29,    8,  474,  468,  473
 17,    9,   10,   31,  475,  476,  477
 18,   31,   30,    9,  478,  472,  477
 19,   10,   11,   32,  479,  480,  481
 20,   32,   31,   10,  482,  476,  481
** ... 780 like lines cut
*Nset, nset=piston, generate
    1,  1681,     1
*Elset, elset=piston, generate
   1,  800,    1
** Section: piston
*Solid Section, elset=piston, material=ABS
,
*End Part
**  
*Part, name=tube
*Node
      1,          20.,         -45.
      2,          20.,         -40.
      3,           0.,         -40.
      4,           0.,         -45.
      5,          10.,          50.
      6,        13.75,          55.
      7,           0.,          55.
      8,           0.,          50.
      9,          25.,         22.5
     10,          20.,          20.
     11,          25.,         -45.
     12,          20.,         -41.
     13,   17.1428566,         -40.
     14,   14.2857141,         -40.
     15,   11.4285717,         -40.
     16,    8.5714283,         -40.
     17,   5.71428585,         -40.
     18,   2.85714293,         -40.
     19,           0.,        -42.5
     20,   2.85714293,         -45.
** ... 4857 like lines cut
*Element, type=CAX6M
 1,    1,   12,  302, 1292, 1293, 1294
 2,  302,   25,    1, 1295, 1296, 1294
 3,   12,    2,   13, 1297, 1298, 1299
 4,   13,  302,   12, 1300, 1293, 1299
 5,   25,  302,  303, 1295, 1301, 1302
 6,  303,   24,   25, 1303, 1304, 1302
 7,  302,   13,   14, 1300, 1305, 1306
 8,   14,  303,  302, 1307, 1301, 1306
 9,   24,  303,  304, 1303, 1308, 1309
10,  304,   23,   24, 1310, 1311, 1309
11,  303,   14,   15, 1307, 1312, 1313
12,   15,  304,  303, 1314, 1308, 1313
13,   23,  304,  305, 1310, 1315, 1316
14,  305,   22,   23, 1317, 1318, 1316
15,  304,   15,   16, 1314, 1319, 1320
16,   16,  305,  304, 1321, 1315, 1320
17,   22,  305,  306, 1317, 1322, 1323
18,  306,   21,   22, 1324, 1325, 1323
19,  305,   16,   17, 1321, 1326, 1327
20,   17,  306,  305, 1328, 1322, 1327
** ... 2276 like lines cut
*Nset, nset=tube, generate
    1,  4877,     1
*Elset, elset=tube, generate
    1,  2296,     1
** Section: tube
*Solid Section, elset=tube, material=steel
,
*End Part
**  
**
** ASSEMBLY
**
*Assembly, name=Assembly
**  
*Instance, name=piston-1, part=piston
*End Instance
**  
*Instance, name=tube-1, part=tube
*End Instance
**  
*Nset, nset=piston, instance=piston-1, generate
    1,  1681,     1
*Elset, elset=piston, instance=piston-1, generate
   1,  800,    1
*Nset, nset=piston-centre, instance=piston-1
    1,   22,   43,   64,   85,  106,  127,  148,  169,  190,  211,  232,  253,  274,  295,  316
  337,  358,  379,  400,  421,  446,  526,  587,  648,  709,  770,  831,  892,  953, 1014, 1075
 1136, 1197, 1258, 1319, 1380, 1441, 1502, 1563, 1624
*Elset, elset=piston-centre, instance=piston-1, generate
   2,  762,   40
*Nset, nset=tube-centre, instance=tube-1
    3,    4,    7,    8,   19,   37,   38,   39,   40,   41,   42,   43,   44, 1338, 1342, 1438
 1442, 1445, 1448, 1451, 1454, 1457, 1460, 1463
*Elset, elset=tube-centre, instance=tube-1
  26,  28,  84,  86,  88,  90,  92,  94,  96,  98, 100
*Nset, nset=tube-ends, instance=tube-1
    1,    4,    6,    7,   11,   20,   21,   22,   23,   24,   25,   34,   35,   36,   96,   97
   98,   99,  100,  101,  102,  103, 1296, 1304, 1311, 1318, 1325, 1332, 1339, 1377, 1405, 1433
 1461, 2651, 2654, 2657, 2660, 2663, 2666, 2669, 2672, 2674
*Elset, elset=tube-ends, instance=tube-1
   2,   6,  10,  14,  18,  22,  26,  45,  63,  81,  99, 858, 860, 862, 864, 866
 868, 870, 872, 874
*Elset, elset=_inner-tube_S2, internal, instance=tube-1
  3,  7, 11, 15, 19, 23, 27, 30, 48, 66, 84
*Elset, elset=_inner-tube_S3, internal, instance=tube-1, generate
  875,  2279,    18
*Elset, elset=_inner-tube_S1, internal, instance=tube-1, generate
 118,  838,   18
*Surface, type=ELEMENT, name=inner-tube
_inner-tube_S2, S2
_inner-tube_S3, S3
_inner-tube_S1, S1
*Elset, elset=_outer-piston_S1, internal, instance=piston-1
   1,   3,   5,   7,   9,  11,  13,  15,  17,  19,  21,  23,  25,  27,  29,  31
  33,  35,  37,  39, 762, 764, 766, 768, 770, 772, 774, 776, 778, 780, 782, 784
 786, 788, 790, 792, 794, 796, 798, 800
*Elset, elset=_outer-piston_S2, internal, instance=piston-1, generate
  39,  799,   40
*Surface, type=ELEMENT, name=outer-piston
_outer-piston_S1, S1
_outer-piston_S2, S2
*Elset, elset=_piston-back_S1, internal, instance=piston-1, generate
  1,  39,   2
*Surface, type=ELEMENT, name=piston-back
_piston-back_S1, S1
*Elset, elset=_piston-front_S1, internal, instance=piston-1, generate
 762,  800,    2
*Surface, type=ELEMENT, name=piston-front
_piston-front_S1, S1
*End Assembly
*Amplitude, name=piston-back
             0.,              0.,              1.,              1.
*Amplitude, name=piston-front
             0.,              0.,              1.,              1.
** 
** MATERIALS
** 
*Material, name=ABS
*Density
 1.05e-09,
*Elastic
22000., 0.35
*Plastic
1200.,0.
1200.,1.
*Material, name=steel
*Density
 8e-09,
*Elastic
200000., 0.3
** 
** INTERACTION PROPERTIES
** 
*Surface Interaction, name=sliding
1.,
*Friction, slip tolerance=0.005
 0.05,
*Surface Behavior, pressure-overclosure=HARD
** 
** BOUNDARY CONDITIONS
** 
** Name: fix-piston-centre Type: Displacement/Rotation
*Boundary
piston-centre, 1, 1
** Name: fix-tube-centre Type: Displacement/Rotation
*Boundary
tube-centre, 1, 1
** Name: fix-tube-ends Type: Displacement/Rotation
*Boundary
tube-ends, 2, 2
** 
** PREDEFINED FIELDS
** 
** Name: piston-initial-velocity   Type: Velocity
*Initial Conditions, type=VELOCITY
piston, 1, 0.
piston, 2, 3e+06
** 
** INTERACTIONS
** 
** Interaction: piston-tube-contact
*Contact Pair, interaction=sliding, type=SURFACE TO SURFACE
outer-piston, inner-tube
** ----------------------------------------------------------------
** 
** STEP: taper-slide
** 
*Step, name=taper-slide, nlgeom=YES, inc=10000000
*Dynamic
1e-08,1.,1e-10
** 
** LOADS
** 
** Name: piston-back-pressure   Type: Pressure
*Dsload, amplitude=piston-back
piston-back, P, 0.2
** Name: piston-front-pressure   Type: Pressure
*Dsload, amplitude=piston-front
piston-front, P, 0.1
** 
** OUTPUT REQUESTS
** 
*Restart, write, frequency=0
** 
** FIELD OUTPUT: F-Output-1
** 
*Output, field, frequency=1
*Node Output
A, U, V
*Element Output, directions=YES
LE, PE, PEEQ, PEMAG, S
*Contact Output
CDISP, CSTRESS
** 
** HISTORY OUTPUT: H-Output-1
** 
*Output, history, frequency=1
*Energy Output
ALLPD, ALLSE, ETOTAL
*Contact Output
CFN1, CFN2, CFN3, CFNM, CFS1, CFS2, CFS3, CFSM, CFT1, CFT2, CFT3, CFTM
*End Step
